* NGSPICE file created from freq_div.ext - technology: sky130A

.subckt sky130_fd_pr__pfet_01v8_4798MH VSUBS a_81_n156# a_111_n125# a_15_n125# a_n173_n125#
+ w_n311_n344# a_n111_n156# a_n15_n156# a_n81_n125#
X0 a_n81_n125# a_n111_n156# a_n173_n125# w_n311_n344# sky130_fd_pr__pfet_01v8 ad=0p pd=0u as=0p ps=0u w=1.25e+06u l=150000u
X1 a_15_n125# a_n15_n156# a_n81_n125# w_n311_n344# sky130_fd_pr__pfet_01v8 ad=0p pd=0u as=0p ps=0u w=1.25e+06u l=150000u
X2 a_111_n125# a_81_n156# a_15_n125# w_n311_n344# sky130_fd_pr__pfet_01v8 ad=0p pd=0u as=0p ps=0u w=1.25e+06u l=150000u
C0 a_111_n125# a_n81_n125# 0.13fF
C1 a_15_n125# a_n81_n125# 0.36fF
C2 w_n311_n344# a_n173_n125# 0.14fF
C3 w_n311_n344# a_111_n125# 0.14fF
C4 a_15_n125# w_n311_n344# 0.09fF
C5 a_81_n156# a_n15_n156# 0.02fF
C6 a_111_n125# a_n173_n125# 0.08fF
C7 a_15_n125# a_n173_n125# 0.13fF
C8 a_15_n125# a_111_n125# 0.36fF
C9 w_n311_n344# a_n81_n125# 0.09fF
C10 a_n15_n156# a_n111_n156# 0.02fF
C11 a_n173_n125# a_n81_n125# 0.36fF
C12 a_111_n125# VSUBS 0.03fF
C13 a_15_n125# VSUBS 0.03fF
C14 a_n81_n125# VSUBS 0.03fF
C15 a_n173_n125# VSUBS 0.03fF
C16 a_81_n156# VSUBS 0.05fF
C17 a_n15_n156# VSUBS 0.05fF
C18 a_n111_n156# VSUBS 0.05fF
C19 w_n311_n344# VSUBS 2.11fF
.ends

.subckt sky130_fd_pr__nfet_01v8_BHR94T a_n15_n151# w_n311_n335# a_81_n151# a_111_n125#
+ a_15_n125# a_n173_n125# a_n111_n151# a_n81_n125#
X0 a_111_n125# a_81_n151# a_15_n125# w_n311_n335# sky130_fd_pr__nfet_01v8 ad=0p pd=0u as=0p ps=0u w=1.25e+06u l=150000u
X1 a_n81_n125# a_n111_n151# a_n173_n125# w_n311_n335# sky130_fd_pr__nfet_01v8 ad=0p pd=0u as=0p ps=0u w=1.25e+06u l=150000u
X2 a_15_n125# a_n15_n151# a_n81_n125# w_n311_n335# sky130_fd_pr__nfet_01v8 ad=0p pd=0u as=0p ps=0u w=1.25e+06u l=150000u
C0 a_15_n125# a_n173_n125# 0.13fF
C1 a_n81_n125# a_n173_n125# 0.36fF
C2 a_n15_n151# a_n111_n151# 0.02fF
C3 a_81_n151# a_n15_n151# 0.02fF
C4 a_111_n125# a_n173_n125# 0.08fF
C5 a_n81_n125# a_15_n125# 0.36fF
C6 a_111_n125# a_15_n125# 0.36fF
C7 a_111_n125# a_n81_n125# 0.13fF
C8 a_111_n125# w_n311_n335# 0.17fF
C9 a_15_n125# w_n311_n335# 0.12fF
C10 a_n81_n125# w_n311_n335# 0.12fF
C11 a_n173_n125# w_n311_n335# 0.17fF
C12 a_81_n151# w_n311_n335# 0.05fF
C13 a_n15_n151# w_n311_n335# 0.05fF
C14 a_n111_n151# w_n311_n335# 0.05fF
.ends

.subckt trans_gate m1_187_n605# vss m1_45_n513# vdd
Xsky130_fd_pr__pfet_01v8_4798MH_0 vss vss m1_187_n605# m1_45_n513# m1_45_n513# vdd
+ vss vss m1_187_n605# sky130_fd_pr__pfet_01v8_4798MH
Xsky130_fd_pr__nfet_01v8_BHR94T_0 vdd vss vdd m1_187_n605# m1_45_n513# m1_45_n513#
+ vdd m1_187_n605# sky130_fd_pr__nfet_01v8_BHR94T
C0 m1_45_n513# vdd 0.69fF
C1 m1_187_n605# vdd 0.55fF
C2 m1_187_n605# m1_45_n513# 0.36fF
C3 m1_187_n605# vss 0.93fF
C4 m1_45_n513# vss 1.31fF
C5 vdd vss 3.23fF
.ends

.subckt sky130_fd_pr__pfet_01v8_7KT7MH VSUBS a_n111_n186# a_111_n125# a_15_n125# a_n173_n125#
+ w_n311_n344# a_n81_n125#
X0 a_n81_n125# a_n111_n186# a_n173_n125# w_n311_n344# sky130_fd_pr__pfet_01v8 ad=0p pd=0u as=0p ps=0u w=1.25e+06u l=150000u
X1 a_15_n125# a_n111_n186# a_n81_n125# w_n311_n344# sky130_fd_pr__pfet_01v8 ad=0p pd=0u as=0p ps=0u w=1.25e+06u l=150000u
X2 a_111_n125# a_n111_n186# a_15_n125# w_n311_n344# sky130_fd_pr__pfet_01v8 ad=0p pd=0u as=0p ps=0u w=1.25e+06u l=150000u
C0 a_111_n125# a_15_n125# 0.36fF
C1 a_15_n125# w_n311_n344# 0.09fF
C2 a_15_n125# a_n81_n125# 0.36fF
C3 a_111_n125# w_n311_n344# 0.14fF
C4 a_111_n125# a_n81_n125# 0.13fF
C5 w_n311_n344# a_n81_n125# 0.09fF
C6 a_n173_n125# a_15_n125# 0.13fF
C7 a_111_n125# a_n173_n125# 0.08fF
C8 a_n173_n125# w_n311_n344# 0.14fF
C9 a_n173_n125# a_n81_n125# 0.36fF
C10 a_111_n125# VSUBS 0.03fF
C11 a_15_n125# VSUBS 0.03fF
C12 a_n81_n125# VSUBS 0.03fF
C13 a_n173_n125# VSUBS 0.03fF
C14 a_n111_n186# VSUBS 0.26fF
C15 w_n311_n344# VSUBS 2.21fF
.ends

.subckt sky130_fd_pr__nfet_01v8_2BS6QM w_n311_n335# a_111_n125# a_15_n125# a_n173_n125#
+ a_n111_n151# a_n81_n125#
X0 a_111_n125# a_n111_n151# a_15_n125# w_n311_n335# sky130_fd_pr__nfet_01v8 ad=0p pd=0u as=0p ps=0u w=1.25e+06u l=150000u
X1 a_n81_n125# a_n111_n151# a_n173_n125# w_n311_n335# sky130_fd_pr__nfet_01v8 ad=0p pd=0u as=0p ps=0u w=1.25e+06u l=150000u
X2 a_15_n125# a_n111_n151# a_n81_n125# w_n311_n335# sky130_fd_pr__nfet_01v8 ad=0p pd=0u as=0p ps=0u w=1.25e+06u l=150000u
C0 a_n173_n125# a_n81_n125# 0.36fF
C1 a_111_n125# a_15_n125# 0.36fF
C2 a_n173_n125# a_111_n125# 0.08fF
C3 a_n81_n125# a_111_n125# 0.13fF
C4 a_n173_n125# a_15_n125# 0.13fF
C5 a_n81_n125# a_15_n125# 0.36fF
C6 a_111_n125# w_n311_n335# 0.17fF
C7 a_15_n125# w_n311_n335# 0.12fF
C8 a_n81_n125# w_n311_n335# 0.12fF
C9 a_n173_n125# w_n311_n335# 0.17fF
C10 a_n111_n151# w_n311_n335# 0.25fF
.ends

.subckt inverter_cp_x1 out in vdd vss
Xsky130_fd_pr__pfet_01v8_7KT7MH_0 vss in out vdd vdd vdd out sky130_fd_pr__pfet_01v8_7KT7MH
Xsky130_fd_pr__nfet_01v8_2BS6QM_0 vss out vss vss in out sky130_fd_pr__nfet_01v8_2BS6QM
C0 vdd out 0.10fF
C1 in out 0.32fF
C2 out vss 0.77fF
C3 in vss 0.95fF
C4 vdd vss 3.13fF
.ends

.subckt clock_inverter vss inverter_cp_x1_2/in CLK vdd inverter_cp_x1_0/out CLK_d
+ nCLK_d
Xtrans_gate_0 nCLK_d vss inverter_cp_x1_0/out vdd trans_gate
Xinverter_cp_x1_0 inverter_cp_x1_0/out CLK vdd vss inverter_cp_x1
Xinverter_cp_x1_2 CLK_d inverter_cp_x1_2/in vdd vss inverter_cp_x1
Xinverter_cp_x1_1 inverter_cp_x1_2/in CLK vdd vss inverter_cp_x1
C0 vdd CLK_d 0.03fF
C1 inverter_cp_x1_2/in CLK_d 0.12fF
C2 inverter_cp_x1_2/in vdd 0.21fF
C3 CLK inverter_cp_x1_0/out 0.31fF
C4 inverter_cp_x1_0/out nCLK_d 0.11fF
C5 vdd inverter_cp_x1_0/out 0.28fF
C6 CLK vdd 0.36fF
C7 CLK inverter_cp_x1_2/in 0.31fF
C8 vdd nCLK_d 0.03fF
C9 inverter_cp_x1_2/in vss 2.01fF
C10 CLK_d vss 0.96fF
C11 inverter_cp_x1_0/out vss 1.97fF
C12 CLK vss 3.03fF
C13 vdd vss 16.35fF
C14 nCLK_d vss 1.44fF
.ends

.subckt sky130_fd_pr__pfet_01v8_MJG8BZ VSUBS a_n125_n95# a_63_n95# w_n263_n314# a_n33_n95#
+ a_n63_n192#
X0 a_63_n95# a_n63_n192# a_n33_n95# w_n263_n314# sky130_fd_pr__pfet_01v8 ad=0p pd=0u as=0p ps=0u w=950000u l=150000u
X1 a_n33_n95# a_n63_n192# a_n125_n95# w_n263_n314# sky130_fd_pr__pfet_01v8 ad=0p pd=0u as=0p ps=0u w=950000u l=150000u
C0 a_n125_n95# a_n33_n95# 0.28fF
C1 w_n263_n314# a_63_n95# 0.11fF
C2 w_n263_n314# a_n33_n95# 0.08fF
C3 w_n263_n314# a_n125_n95# 0.11fF
C4 a_63_n95# a_n33_n95# 0.28fF
C5 a_n125_n95# a_63_n95# 0.10fF
C6 a_63_n95# VSUBS 0.03fF
C7 a_n33_n95# VSUBS 0.03fF
C8 a_n125_n95# VSUBS 0.03fF
C9 a_n63_n192# VSUBS 0.20fF
C10 w_n263_n314# VSUBS 1.80fF
.ends

.subckt sky130_fd_pr__nfet_01v8_2BS854 w_n311_n335# a_n129_n213# a_111_n125# a_15_n125#
+ a_n173_n125# a_n81_n125#
X0 a_111_n125# a_n129_n213# a_15_n125# w_n311_n335# sky130_fd_pr__nfet_01v8 ad=0p pd=0u as=0p ps=0u w=1.25e+06u l=150000u
X1 a_n81_n125# a_n129_n213# a_n173_n125# w_n311_n335# sky130_fd_pr__nfet_01v8 ad=0p pd=0u as=0p ps=0u w=1.25e+06u l=150000u
X2 a_15_n125# a_n129_n213# a_n81_n125# w_n311_n335# sky130_fd_pr__nfet_01v8 ad=0p pd=0u as=0p ps=0u w=1.25e+06u l=150000u
C0 a_n81_n125# a_15_n125# 0.36fF
C1 a_n129_n213# a_111_n125# 0.01fF
C2 a_n173_n125# a_n81_n125# 0.36fF
C3 a_n129_n213# a_15_n125# 0.10fF
C4 a_n173_n125# a_n129_n213# 0.02fF
C5 a_n129_n213# a_n81_n125# 0.10fF
C6 a_111_n125# a_15_n125# 0.36fF
C7 a_n173_n125# a_111_n125# 0.08fF
C8 a_n81_n125# a_111_n125# 0.13fF
C9 a_n173_n125# a_15_n125# 0.13fF
C10 a_111_n125# w_n311_n335# 0.05fF
C11 a_15_n125# w_n311_n335# 0.05fF
C12 a_n81_n125# w_n311_n335# 0.05fF
C13 a_n173_n125# w_n311_n335# 0.05fF
C14 a_n129_n213# w_n311_n335# 0.49fF
.ends

.subckt sky130_fd_pr__nfet_01v8_KU9PSX a_n125_n95# a_n33_n95# a_n81_n183# w_n263_n305#
X0 a_n33_n95# a_n81_n183# a_n125_n95# w_n263_n305# sky130_fd_pr__nfet_01v8 ad=0p pd=0u as=0p ps=0u w=950000u l=150000u
X1 a_n125_n95# a_n81_n183# a_n33_n95# w_n263_n305# sky130_fd_pr__nfet_01v8 ad=0p pd=0u as=0p ps=0u w=950000u l=150000u
C0 a_n125_n95# a_n33_n95# 0.88fF
C1 a_n125_n95# a_n81_n183# 0.16fF
C2 a_n81_n183# a_n33_n95# 0.10fF
C3 a_n33_n95# w_n263_n305# 0.07fF
C4 a_n125_n95# w_n263_n305# 0.13fF
C5 a_n81_n183# w_n263_n305# 0.31fF
.ends

.subckt latch_diff m1_657_280# nQ Q vss CLK vdd nD D
Xsky130_fd_pr__pfet_01v8_MJG8BZ_0 vss vdd vdd vdd nQ Q sky130_fd_pr__pfet_01v8_MJG8BZ
Xsky130_fd_pr__pfet_01v8_MJG8BZ_1 vss vdd vdd vdd Q nQ sky130_fd_pr__pfet_01v8_MJG8BZ
Xsky130_fd_pr__nfet_01v8_2BS854_0 vss CLK vss m1_657_280# m1_657_280# vss sky130_fd_pr__nfet_01v8_2BS854
Xsky130_fd_pr__nfet_01v8_KU9PSX_0 m1_657_280# Q nD vss sky130_fd_pr__nfet_01v8_KU9PSX
Xsky130_fd_pr__nfet_01v8_KU9PSX_1 m1_657_280# nQ D vss sky130_fd_pr__nfet_01v8_KU9PSX
C0 D nQ 0.05fF
C1 Q m1_657_280# 0.94fF
C2 Q nQ 0.93fF
C3 nD nQ 0.05fF
C4 Q vdd 0.16fF
C5 m1_657_280# nQ 1.41fF
C6 Q D 0.05fF
C7 m1_657_280# CLK 0.24fF
C8 vdd nQ 0.16fF
C9 Q nD 0.05fF
C10 D vss 0.53fF
C11 nD vss 0.16fF
C12 m1_657_280# vss 1.88fF
C13 CLK vss 0.87fF
C14 Q vss -0.55fF
C15 nQ vss 1.16fF
C16 vdd vss 5.98fF
.ends

.subckt DFlipFlop latch_diff_0/m1_657_280# vdd vss latch_diff_1/D clock_inverter_0/inverter_cp_x1_2/in
+ nQ latch_diff_0/nD Q latch_diff_1/nD D latch_diff_1/m1_657_280# latch_diff_0/D CLK
+ clock_inverter_0/inverter_cp_x1_0/out nCLK
Xclock_inverter_0 vss clock_inverter_0/inverter_cp_x1_2/in D vdd clock_inverter_0/inverter_cp_x1_0/out
+ latch_diff_0/D latch_diff_0/nD clock_inverter
Xlatch_diff_0 latch_diff_0/m1_657_280# latch_diff_1/nD latch_diff_1/D vss CLK vdd
+ latch_diff_0/nD latch_diff_0/D latch_diff
Xlatch_diff_1 latch_diff_1/m1_657_280# nQ Q vss nCLK vdd latch_diff_1/nD latch_diff_1/D
+ latch_diff
C0 latch_diff_0/m1_657_280# latch_diff_0/D 0.37fF
C1 latch_diff_1/m1_657_280# latch_diff_1/D 0.32fF
C2 nQ latch_diff_1/D 0.11fF
C3 latch_diff_1/nD vdd 0.02fF
C4 vdd latch_diff_0/nD 0.14fF
C5 latch_diff_1/m1_657_280# latch_diff_0/m1_657_280# 0.18fF
C6 vdd clock_inverter_0/inverter_cp_x1_0/out 0.03fF
C7 latch_diff_0/m1_657_280# latch_diff_1/D 0.43fF
C8 latch_diff_1/nD latch_diff_0/D 0.04fF
C9 vdd latch_diff_0/D 0.09fF
C10 latch_diff_1/nD latch_diff_1/m1_657_280# 0.42fF
C11 latch_diff_1/nD nQ 0.08fF
C12 latch_diff_1/nD Q 0.01fF
C13 latch_diff_1/nD latch_diff_1/D 0.33fF
C14 latch_diff_1/D latch_diff_0/nD 0.41fF
C15 vdd latch_diff_1/D 0.03fF
C16 latch_diff_1/nD latch_diff_0/m1_657_280# 0.14fF
C17 latch_diff_0/m1_657_280# latch_diff_0/nD 0.38fF
C18 latch_diff_0/D latch_diff_1/D 0.11fF
C19 latch_diff_1/m1_657_280# vss 0.64fF
C20 nCLK vss 0.83fF
C21 Q vss -0.92fF
C22 nQ vss 0.57fF
C23 latch_diff_0/m1_657_280# vss 0.72fF
C24 CLK vss 0.83fF
C25 latch_diff_1/D vss -0.30fF
C26 latch_diff_1/nD vss 1.83fF
C27 clock_inverter_0/inverter_cp_x1_2/in vss 1.86fF
C28 latch_diff_0/D vss 1.29fF
C29 clock_inverter_0/inverter_cp_x1_0/out vss 1.84fF
C30 D vss 3.27fF
C31 vdd vss 32.52fF
C32 latch_diff_0/nD vss 1.74fF
.ends

.subckt sky130_fd_pr__pfet_01v8_ZP3U9B VSUBS a_n221_n84# a_159_n84# w_n359_n303# a_n63_n110#
+ a_n129_n84# a_33_n110# a_n159_n110# a_63_n84# a_129_n110# a_n33_n84#
X0 a_n129_n84# a_n159_n110# a_n221_n84# w_n359_n303# sky130_fd_pr__pfet_01v8 ad=0p pd=0u as=0p ps=0u w=840000u l=150000u
X1 a_63_n84# a_33_n110# a_n33_n84# w_n359_n303# sky130_fd_pr__pfet_01v8 ad=0p pd=0u as=0p ps=0u w=840000u l=150000u
X2 a_n33_n84# a_n63_n110# a_n129_n84# w_n359_n303# sky130_fd_pr__pfet_01v8 ad=0p pd=0u as=0p ps=0u w=840000u l=150000u
X3 a_159_n84# a_129_n110# a_63_n84# w_n359_n303# sky130_fd_pr__pfet_01v8 ad=0p pd=0u as=0p ps=0u w=840000u l=150000u
C0 a_n33_n84# a_159_n84# 0.09fF
C1 a_159_n84# w_n359_n303# 0.08fF
C2 a_159_n84# a_n221_n84# 0.04fF
C3 a_63_n84# a_n129_n84# 0.09fF
C4 a_n33_n84# a_n129_n84# 0.24fF
C5 a_n129_n84# w_n359_n303# 0.06fF
C6 a_n129_n84# a_n221_n84# 0.24fF
C7 a_63_n84# a_n33_n84# 0.24fF
C8 a_63_n84# w_n359_n303# 0.06fF
C9 a_n159_n110# a_n63_n110# 0.02fF
C10 a_63_n84# a_n221_n84# 0.05fF
C11 a_n33_n84# w_n359_n303# 0.05fF
C12 a_n33_n84# a_n221_n84# 0.09fF
C13 w_n359_n303# a_n221_n84# 0.08fF
C14 a_33_n110# a_n63_n110# 0.02fF
C15 a_33_n110# a_129_n110# 0.02fF
C16 a_159_n84# a_n129_n84# 0.05fF
C17 a_63_n84# a_159_n84# 0.24fF
C18 a_159_n84# VSUBS 0.03fF
C19 a_63_n84# VSUBS 0.03fF
C20 a_n33_n84# VSUBS 0.03fF
C21 a_n129_n84# VSUBS 0.03fF
C22 a_n221_n84# VSUBS 0.03fF
C23 a_129_n110# VSUBS 0.05fF
C24 a_33_n110# VSUBS 0.05fF
C25 a_n63_n110# VSUBS 0.05fF
C26 a_n159_n110# VSUBS 0.05fF
C27 w_n359_n303# VSUBS 2.19fF
.ends

.subckt sky130_fd_pr__nfet_01v8_DXA56D w_n359_n252# a_n33_n42# a_129_n68# a_n159_n68#
+ a_n221_n42# a_159_n42# a_n129_n42# a_33_n68# a_n63_n68# a_63_n42#
X0 a_63_n42# a_33_n68# a_n33_n42# w_n359_n252# sky130_fd_pr__nfet_01v8 ad=0p pd=0u as=0p ps=0u w=420000u l=150000u
X1 a_n33_n42# a_n63_n68# a_n129_n42# w_n359_n252# sky130_fd_pr__nfet_01v8 ad=0p pd=0u as=0p ps=0u w=420000u l=150000u
X2 a_159_n42# a_129_n68# a_63_n42# w_n359_n252# sky130_fd_pr__nfet_01v8 ad=0p pd=0u as=0p ps=0u w=420000u l=150000u
X3 a_n129_n42# a_n159_n68# a_n221_n42# w_n359_n252# sky130_fd_pr__nfet_01v8 ad=0p pd=0u as=0p ps=0u w=420000u l=150000u
C0 a_33_n68# a_129_n68# 0.02fF
C1 a_159_n42# a_63_n42# 0.12fF
C2 a_n129_n42# a_n33_n42# 0.12fF
C3 a_63_n42# a_n221_n42# 0.03fF
C4 a_159_n42# a_n221_n42# 0.02fF
C5 a_63_n42# a_n33_n42# 0.12fF
C6 a_33_n68# a_n63_n68# 0.02fF
C7 a_159_n42# a_n33_n42# 0.05fF
C8 a_n221_n42# a_n33_n42# 0.05fF
C9 a_63_n42# a_n129_n42# 0.05fF
C10 a_n159_n68# a_n63_n68# 0.02fF
C11 a_159_n42# a_n129_n42# 0.03fF
C12 a_n221_n42# a_n129_n42# 0.12fF
C13 a_159_n42# w_n359_n252# 0.07fF
C14 a_63_n42# w_n359_n252# 0.06fF
C15 a_n33_n42# w_n359_n252# 0.06fF
C16 a_n129_n42# w_n359_n252# 0.06fF
C17 a_n221_n42# w_n359_n252# 0.07fF
C18 a_129_n68# w_n359_n252# 0.05fF
C19 a_33_n68# w_n359_n252# 0.05fF
C20 a_n63_n68# w_n359_n252# 0.05fF
C21 a_n159_n68# w_n359_n252# 0.05fF
.ends

.subckt inverter_min_x4 in out vss vdd
Xsky130_fd_pr__pfet_01v8_ZP3U9B_0 vss out out vdd in vdd in in vdd in out sky130_fd_pr__pfet_01v8_ZP3U9B
Xsky130_fd_pr__nfet_01v8_DXA56D_0 vss out in in out out vss in in vss sky130_fd_pr__nfet_01v8_DXA56D
C0 out vdd 0.62fF
C1 out in 0.67fF
C2 vdd in 0.33fF
C3 out vss 0.66fF
C4 in vss 1.89fF
C5 vdd vss 3.87fF
.ends

.subckt sky130_fd_pr__nfet_01v8_5RJ8EK a_n33_n42# a_33_n68# w_n263_n252# a_n63_n68#
+ a_n125_n42# a_63_n42#
X0 a_63_n42# a_33_n68# a_n33_n42# w_n263_n252# sky130_fd_pr__nfet_01v8 ad=0p pd=0u as=0p ps=0u w=420000u l=150000u
X1 a_n33_n42# a_n63_n68# a_n125_n42# w_n263_n252# sky130_fd_pr__nfet_01v8 ad=0p pd=0u as=0p ps=0u w=420000u l=150000u
C0 a_n63_n68# a_33_n68# 0.02fF
C1 a_n33_n42# a_n125_n42# 0.12fF
C2 a_n33_n42# a_63_n42# 0.12fF
C3 a_63_n42# a_n125_n42# 0.05fF
C4 a_63_n42# w_n263_n252# 0.09fF
C5 a_n33_n42# w_n263_n252# 0.07fF
C6 a_n125_n42# w_n263_n252# 0.09fF
C7 a_33_n68# w_n263_n252# 0.05fF
C8 a_n63_n68# w_n263_n252# 0.05fF
.ends

.subckt sky130_fd_pr__pfet_01v8_ZPB9BB VSUBS a_n63_n110# a_33_n110# a_n125_n84# a_63_n84#
+ w_n263_n303# a_n33_n84#
X0 a_63_n84# a_33_n110# a_n33_n84# w_n263_n303# sky130_fd_pr__pfet_01v8 ad=0p pd=0u as=0p ps=0u w=840000u l=150000u
X1 a_n33_n84# a_n63_n110# a_n125_n84# w_n263_n303# sky130_fd_pr__pfet_01v8 ad=0p pd=0u as=0p ps=0u w=840000u l=150000u
C0 a_n63_n110# a_33_n110# 0.02fF
C1 a_n125_n84# w_n263_n303# 0.10fF
C2 a_n125_n84# a_63_n84# 0.09fF
C3 a_63_n84# w_n263_n303# 0.10fF
C4 a_n125_n84# a_n33_n84# 0.24fF
C5 a_n33_n84# w_n263_n303# 0.07fF
C6 a_63_n84# a_n33_n84# 0.24fF
C7 a_63_n84# VSUBS 0.03fF
C8 a_n33_n84# VSUBS 0.03fF
C9 a_n125_n84# VSUBS 0.03fF
C10 a_33_n110# VSUBS 0.05fF
C11 a_n63_n110# VSUBS 0.05fF
C12 w_n263_n303# VSUBS 1.74fF
.ends

.subckt inverter_min_x2 in out vss vdd
Xsky130_fd_pr__nfet_01v8_5RJ8EK_0 vss in vss in out out sky130_fd_pr__nfet_01v8_5RJ8EK
Xsky130_fd_pr__pfet_01v8_ZPB9BB_0 vss in in out out vdd vdd sky130_fd_pr__pfet_01v8_ZPB9BB
C0 vdd out 0.15fF
C1 in out 0.30fF
C2 vdd in 0.01fF
C3 vdd vss 2.93fF
C4 out vss 0.66fF
C5 in vss 0.72fF
.ends

.subckt div_by_2 CLK_2 vss vdd o1 CLK
XDFlipFlop_0 DFlipFlop_0/latch_diff_0/m1_657_280# vdd vss DFlipFlop_0/latch_diff_1/D
+ DFlipFlop_0/clock_inverter_0/inverter_cp_x1_2/in nout_div DFlipFlop_0/latch_diff_0/nD
+ out_div DFlipFlop_0/latch_diff_1/nD nout_div DFlipFlop_0/latch_diff_1/m1_657_280#
+ DFlipFlop_0/latch_diff_0/D DFlipFlop_0/CLK DFlipFlop_0/clock_inverter_0/inverter_cp_x1_0/out
+ DFlipFlop_0/nCLK DFlipFlop
Xclock_inverter_0 vss clock_inverter_0/inverter_cp_x1_2/in CLK vdd clock_inverter_0/inverter_cp_x1_0/out
+ DFlipFlop_0/CLK DFlipFlop_0/nCLK clock_inverter
Xinverter_min_x4_1 o2 nCLK_2 vss vdd inverter_min_x4
Xinverter_min_x4_0 o1 CLK_2 vss vdd inverter_min_x4
Xinverter_min_x2_0 nout_div o2 vss vdd inverter_min_x2
Xinverter_min_x2_1 out_div o1 vss vdd inverter_min_x2
C0 nout_div DFlipFlop_0/latch_diff_1/m1_657_280# 0.21fF
C1 vdd DFlipFlop_0/clock_inverter_0/inverter_cp_x1_0/out 0.03fF
C2 DFlipFlop_0/CLK DFlipFlop_0/latch_diff_0/m1_657_280# 0.26fF
C3 DFlipFlop_0/clock_inverter_0/inverter_cp_x1_2/in DFlipFlop_0/nCLK 0.46fF
C4 nout_div DFlipFlop_0/latch_diff_0/nD 0.07fF
C5 nout_div DFlipFlop_0/latch_diff_1/D 0.64fF
C6 o2 vdd 0.14fF
C7 DFlipFlop_0/CLK DFlipFlop_0/clock_inverter_0/inverter_cp_x1_0/out 0.29fF
C8 nout_div DFlipFlop_0/latch_diff_1/nD 1.18fF
C9 o1 vdd 0.14fF
C10 vdd nout_div 0.16fF
C11 DFlipFlop_0/latch_diff_0/D DFlipFlop_0/nCLK 0.13fF
C12 DFlipFlop_0/CLK DFlipFlop_0/latch_diff_0/nD 0.12fF
C13 o1 out_div 0.01fF
C14 nout_div out_div 0.22fF
C15 o2 nCLK_2 0.11fF
C16 DFlipFlop_0/CLK DFlipFlop_0/latch_diff_1/D -0.48fF
C17 DFlipFlop_0/nCLK DFlipFlop_0/latch_diff_1/m1_657_280# 0.26fF
C18 vdd out_div 0.03fF
C19 DFlipFlop_0/latch_diff_1/nD DFlipFlop_0/CLK 0.11fF
C20 nout_div DFlipFlop_0/CLK 0.42fF
C21 DFlipFlop_0/clock_inverter_0/inverter_cp_x1_2/in vdd 0.03fF
C22 vdd nCLK_2 0.08fF
C23 vdd DFlipFlop_0/CLK 0.40fF
C24 DFlipFlop_0/latch_diff_1/D DFlipFlop_0/nCLK 0.08fF
C25 nout_div DFlipFlop_0/latch_diff_0/m1_657_280# 0.24fF
C26 o1 CLK_2 0.11fF
C27 DFlipFlop_0/latch_diff_1/nD DFlipFlop_0/nCLK -0.09fF
C28 nout_div DFlipFlop_0/nCLK 0.43fF
C29 o2 DFlipFlop_0/latch_diff_1/m1_657_280# 0.02fF
C30 vdd CLK_2 0.08fF
C31 nout_div DFlipFlop_0/latch_diff_0/D 0.09fF
C32 vdd DFlipFlop_0/nCLK 0.30fF
C33 vdd clock_inverter_0/inverter_cp_x1_0/out 0.10fF
C34 o1 DFlipFlop_0/latch_diff_1/m1_657_280# 0.02fF
C35 CLK_2 vss 1.08fF
C36 o1 vss 2.21fF
C37 nCLK_2 vss 1.08fF
C38 o2 vss 2.21fF
C39 clock_inverter_0/inverter_cp_x1_2/in vss 1.86fF
C40 DFlipFlop_0/CLK vss 1.03fF
C41 clock_inverter_0/inverter_cp_x1_0/out vss 1.85fF
C42 CLK vss 3.27fF
C43 DFlipFlop_0/nCLK vss 1.76fF
C44 DFlipFlop_0/latch_diff_1/m1_657_280# vss 0.63fF
C45 out_div vss -0.77fF
C46 DFlipFlop_0/latch_diff_0/m1_657_280# vss 0.57fF
C47 DFlipFlop_0/latch_diff_1/D vss -1.72fF
C48 DFlipFlop_0/latch_diff_1/nD vss 0.57fF
C49 DFlipFlop_0/clock_inverter_0/inverter_cp_x1_2/in vss 1.89fF
C50 DFlipFlop_0/latch_diff_0/D vss 0.96fF
C51 DFlipFlop_0/clock_inverter_0/inverter_cp_x1_0/out vss 1.80fF
C52 nout_div vss 4.41fF
C53 vdd vss 64.24fF
C54 DFlipFlop_0/latch_diff_0/nD vss 1.14fF
.ends

.subckt trans_gate_mux2to8 in vss out en_pos en_neg vdd
Xsky130_fd_pr__pfet_01v8_4798MH_0 vss en_neg in out out vdd en_neg en_neg in sky130_fd_pr__pfet_01v8_4798MH
Xsky130_fd_pr__nfet_01v8_BHR94T_0 en_pos vss en_pos in out out en_pos in sky130_fd_pr__nfet_01v8_BHR94T
C0 vdd in 0.05fF
C1 en_neg en_pos 0.04fF
C2 en_neg out 0.07fF
C3 en_pos out 0.27fF
C4 vdd out 0.68fF
C5 en_neg in 0.28fF
C6 en_pos in 0.07fF
C7 out in 0.36fF
C8 vdd vss 2.63fF
C9 in vss 1.53fF
C10 out vss 0.88fF
C11 en_pos vss 0.29fF
C12 en_neg vss 0.31fF
.ends

.subckt mux2to1 vss select_0_neg out_a_0 out_a_1 select_0 vdd in_a
Xtrans_gate_mux2to8_0 in_a vss out_a_0 select_0_neg select_0 vdd trans_gate_mux2to8
Xtrans_gate_mux2to8_2 in_a vss out_a_1 select_0 select_0_neg vdd trans_gate_mux2to8
C0 out_a_1 vdd 0.09fF
C1 select_0 in_a 0.31fF
C2 select_0_neg select_0 0.17fF
C3 select_0_neg in_a 0.11fF
C4 in_a vdd 0.14fF
C5 out_a_1 select_0 0.14fF
C6 out_a_0 in_a 0.08fF
C7 out_a_0 select_0_neg 0.05fF
C8 out_a_1 in_a 0.08fF
C9 out_a_0 vdd 0.09fF
C10 out_a_1 vss 1.03fF
C11 vdd vss 5.88fF
C12 in_a vss 2.43fF
C13 out_a_0 vss 1.03fF
C14 select_0_neg vss 1.15fF
C15 select_0 vss 0.97fF
.ends

.subckt sky130_fd_sc_hs__xor2_1 A B VGND VNB VPB VPWR X a_194_125# a_355_368# a_455_87#
X0 X B a_455_87# VNB sky130_fd_pr__nfet_01v8_lvt ad=0p pd=0u as=0p ps=0u w=740000u l=150000u
X1 X a_194_125# a_355_368# VPB sky130_fd_pr__pfet_01v8 ad=0p pd=0u as=0p ps=0u w=1.12e+06u l=150000u
X2 a_194_125# B a_158_392# VPB sky130_fd_pr__pfet_01v8 ad=0p pd=0u as=0p ps=0u w=1e+06u l=150000u
X3 a_158_392# A VPWR VPB sky130_fd_pr__pfet_01v8 ad=0p pd=0u as=0p ps=0u w=1e+06u l=150000u
X4 VPWR A a_355_368# VPB sky130_fd_pr__pfet_01v8 ad=0p pd=0u as=0p ps=0u w=1.12e+06u l=150000u
X5 a_355_368# B VPWR VPB sky130_fd_pr__pfet_01v8 ad=0p pd=0u as=0p ps=0u w=1.12e+06u l=150000u
X6 a_194_125# A VGND VNB sky130_fd_pr__nfet_01v8_lvt ad=0p pd=0u as=0p ps=0u w=550000u l=150000u
X7 a_455_87# A VGND VNB sky130_fd_pr__nfet_01v8_lvt ad=0p pd=0u as=0p ps=0u w=740000u l=150000u
X8 VGND B a_194_125# VNB sky130_fd_pr__nfet_01v8_lvt ad=0p pd=0u as=0p ps=0u w=550000u l=150000u
X9 VGND a_194_125# X VNB sky130_fd_pr__nfet_01v8_lvt ad=0p pd=0u as=0p ps=0u w=740000u l=150000u
C0 a_194_125# VPWR 0.33fF
C1 a_355_368# A 0.02fF
C2 a_194_125# X 0.29fF
C3 B VGND 0.10fF
C4 a_194_125# a_355_368# 0.51fF
C5 X VPWR 0.07fF
C6 VGND A 0.31fF
C7 a_355_368# VPWR 0.37fF
C8 a_194_125# VGND 0.25fF
C9 B A 0.28fF
C10 a_355_368# X 0.17fF
C11 a_194_125# B 0.57fF
C12 VPB VPWR 0.06fF
C13 VGND VPWR 0.01fF
C14 B VPWR 0.09fF
C15 a_194_125# A 0.18fF
C16 X VGND 0.28fF
C17 a_194_125# a_158_392# 0.06fF
C18 X B 0.13fF
C19 VPWR A 0.15fF
C20 a_355_368# B 0.08fF
C21 VGND VNB 0.78fF
C22 X VNB 0.21fF
C23 VPWR VNB 0.78fF
C24 B VNB 0.56fF
C25 A VNB 0.70fF
C26 VPB VNB 0.77fF
C27 a_355_368# VNB 0.08fF
C28 a_194_125# VNB 0.40fF
.ends

.subckt sky130_fd_sc_hs__and2_1 A B VGND VNB VPB VPWR X a_143_136# a_56_136#
X0 VGND B a_143_136# VNB sky130_fd_pr__nfet_01v8_lvt ad=0p pd=0u as=0p ps=0u w=640000u l=150000u
X1 X a_56_136# VGND VNB sky130_fd_pr__nfet_01v8_lvt ad=0p pd=0u as=0p ps=0u w=740000u l=150000u
X2 VPWR B a_56_136# VPB sky130_fd_pr__pfet_01v8 ad=0p pd=0u as=0p ps=0u w=840000u l=150000u
X3 a_143_136# A a_56_136# VNB sky130_fd_pr__nfet_01v8_lvt ad=0p pd=0u as=0p ps=0u w=640000u l=150000u
X4 a_56_136# A VPWR VPB sky130_fd_pr__pfet_01v8 ad=0p pd=0u as=0p ps=0u w=840000u l=150000u
X5 X a_56_136# VPWR VPB sky130_fd_pr__pfet_01v8 ad=0p pd=0u as=0p ps=0u w=1.12e+06u l=150000u
C0 VPWR a_56_136# 0.57fF
C1 VGND X 0.15fF
C2 X VPWR 0.20fF
C3 X a_56_136# 0.26fF
C4 A B 0.08fF
C5 VGND A 0.21fF
C6 A VPWR 0.07fF
C7 VGND B 0.03fF
C8 A a_56_136# 0.17fF
C9 VPWR B 0.02fF
C10 a_56_136# B 0.30fF
C11 VPB VPWR 0.04fF
C12 X B 0.02fF
C13 VGND a_56_136# 0.06fF
C14 VGND VNB 0.50fF
C15 X VNB 0.23fF
C16 VPWR VNB 0.50fF
C17 B VNB 0.24fF
C18 A VNB 0.36fF
C19 VPB VNB 0.48fF
C20 a_56_136# VNB 0.38fF
.ends

.subckt sky130_fd_sc_hs__or2_1 A B VGND VNB VPB VPWR X a_152_368# a_63_368#
X0 VPWR A a_152_368# VPB sky130_fd_pr__pfet_01v8 ad=0p pd=0u as=0p ps=0u w=840000u l=150000u
X1 a_152_368# B a_63_368# VPB sky130_fd_pr__pfet_01v8 ad=0p pd=0u as=0p ps=0u w=840000u l=150000u
X2 X a_63_368# VGND VNB sky130_fd_pr__nfet_01v8_lvt ad=0p pd=0u as=0p ps=0u w=740000u l=150000u
X3 X a_63_368# VPWR VPB sky130_fd_pr__pfet_01v8 ad=0p pd=0u as=0p ps=0u w=1.12e+06u l=150000u
X4 a_63_368# B VGND VNB sky130_fd_pr__nfet_01v8_lvt ad=0p pd=0u as=0p ps=0u w=550000u l=150000u
X5 VGND A a_63_368# VNB sky130_fd_pr__nfet_01v8_lvt ad=0p pd=0u as=0p ps=0u w=550000u l=150000u
C0 a_63_368# B 0.14fF
C1 VPWR VPB 0.04fF
C2 VGND X 0.16fF
C3 A X 0.02fF
C4 VPWR X 0.18fF
C5 a_63_368# X 0.33fF
C6 a_63_368# a_152_368# 0.03fF
C7 VPWR A 0.05fF
C8 a_63_368# VGND 0.27fF
C9 a_63_368# A 0.28fF
C10 a_63_368# VPWR 0.29fF
C11 VGND B 0.11fF
C12 A B 0.10fF
C13 VPWR B 0.01fF
C14 VGND VNB 0.53fF
C15 X VNB 0.24fF
C16 A VNB 0.21fF
C17 B VNB 0.31fF
C18 VPWR VNB 0.46fF
C19 VPB VNB 0.48fF
C20 a_63_368# VNB 0.37fF
.ends

.subckt div_by_5 nCLK DFlipFlop_0/D DFlipFlop_0/latch_diff_1/nD vss Q1 CLK DFlipFlop_0/Q
+ vdd DFlipFlop_0/clock_inverter_0/inverter_cp_x1_0/out sky130_fd_sc_hs__and2_1_0/a_56_136#
+ DFlipFlop_3/latch_diff_1/nD DFlipFlop_3/latch_diff_0/D DFlipFlop_1/latch_diff_1/nD
+ DFlipFlop_1/latch_diff_0/nD CLK_5 Q1_shift nQ2 DFlipFlop_0/latch_diff_0/D DFlipFlop_2/D
+ DFlipFlop_1/clock_inverter_0/inverter_cp_x1_0/out DFlipFlop_1/latch_diff_1/D nQ0
+ DFlipFlop_3/clock_inverter_0/inverter_cp_x1_2/in Q0 DFlipFlop_1/D DFlipFlop_2/clock_inverter_0/inverter_cp_x1_0/out
+ DFlipFlop_0/latch_diff_1/D DFlipFlop_2/latch_diff_1/nD DFlipFlop_0/latch_diff_0/nD
+ DFlipFlop_2/nQ DFlipFlop_2/latch_diff_1/D DFlipFlop_0/clock_inverter_0/inverter_cp_x1_2/in
+ DFlipFlop_3/latch_diff_1/D sky130_fd_sc_hs__or2_1_0/a_152_368# sky130_fd_sc_hs__and2_1_1/a_56_136#
+ DFlipFlop_3/nQ sky130_fd_sc_hs__and2_1_0/a_143_136# DFlipFlop_2/latch_diff_0/nD
Xsky130_fd_sc_hs__xor2_1_0 Q1 Q0 vss vss vdd vdd DFlipFlop_2/D sky130_fd_sc_hs__xor2_1_0/a_194_125#
+ sky130_fd_sc_hs__xor2_1_0/a_355_368# sky130_fd_sc_hs__xor2_1_0/a_455_87# sky130_fd_sc_hs__xor2_1
XDFlipFlop_0 DFlipFlop_0/latch_diff_0/m1_657_280# vdd vss DFlipFlop_0/latch_diff_1/D
+ DFlipFlop_0/clock_inverter_0/inverter_cp_x1_2/in nQ2 DFlipFlop_0/latch_diff_0/nD
+ DFlipFlop_0/Q DFlipFlop_0/latch_diff_1/nD DFlipFlop_0/D DFlipFlop_0/latch_diff_1/m1_657_280#
+ DFlipFlop_0/latch_diff_0/D CLK DFlipFlop_0/clock_inverter_0/inverter_cp_x1_0/out
+ nCLK DFlipFlop
XDFlipFlop_1 DFlipFlop_1/latch_diff_0/m1_657_280# vdd vss DFlipFlop_1/latch_diff_1/D
+ DFlipFlop_1/clock_inverter_0/inverter_cp_x1_2/in nQ0 DFlipFlop_1/latch_diff_0/nD
+ Q0 DFlipFlop_1/latch_diff_1/nD DFlipFlop_1/D DFlipFlop_1/latch_diff_1/m1_657_280#
+ DFlipFlop_1/latch_diff_0/D CLK DFlipFlop_1/clock_inverter_0/inverter_cp_x1_0/out
+ nCLK DFlipFlop
XDFlipFlop_2 DFlipFlop_2/latch_diff_0/m1_657_280# vdd vss DFlipFlop_2/latch_diff_1/D
+ DFlipFlop_2/clock_inverter_0/inverter_cp_x1_2/in DFlipFlop_2/nQ DFlipFlop_2/latch_diff_0/nD
+ Q1 DFlipFlop_2/latch_diff_1/nD DFlipFlop_2/D DFlipFlop_2/latch_diff_1/m1_657_280#
+ DFlipFlop_2/latch_diff_0/D CLK DFlipFlop_2/clock_inverter_0/inverter_cp_x1_0/out
+ nCLK DFlipFlop
XDFlipFlop_3 DFlipFlop_3/latch_diff_0/m1_657_280# vdd vss DFlipFlop_3/latch_diff_1/D
+ DFlipFlop_3/clock_inverter_0/inverter_cp_x1_2/in DFlipFlop_3/nQ DFlipFlop_3/latch_diff_0/nD
+ Q1_shift DFlipFlop_3/latch_diff_1/nD Q1 DFlipFlop_3/latch_diff_1/m1_657_280# DFlipFlop_3/latch_diff_0/D
+ nCLK DFlipFlop_3/clock_inverter_0/inverter_cp_x1_0/out CLK DFlipFlop
Xsky130_fd_sc_hs__and2_1_0 Q1 Q0 vss vss vdd vdd DFlipFlop_0/D sky130_fd_sc_hs__and2_1_0/a_143_136#
+ sky130_fd_sc_hs__and2_1_0/a_56_136# sky130_fd_sc_hs__and2_1
Xsky130_fd_sc_hs__and2_1_1 nQ2 nQ0 vss vss vdd vdd DFlipFlop_1/D sky130_fd_sc_hs__and2_1_1/a_143_136#
+ sky130_fd_sc_hs__and2_1_1/a_56_136# sky130_fd_sc_hs__and2_1
Xsky130_fd_sc_hs__or2_1_0 Q1 Q1_shift vss vss vdd vdd CLK_5 sky130_fd_sc_hs__or2_1_0/a_152_368#
+ sky130_fd_sc_hs__or2_1_0/a_63_368# sky130_fd_sc_hs__or2_1
C0 DFlipFlop_0/latch_diff_1/nD Q0 0.21fF
C1 DFlipFlop_2/D Q0 0.25fF
C2 Q1_shift sky130_fd_sc_hs__or2_1_0/a_152_368# -0.04fF
C3 Q1 vdd 9.49fF
C4 DFlipFlop_1/clock_inverter_0/inverter_cp_x1_2/in Q0 0.42fF
C5 CLK DFlipFlop_1/latch_diff_1/nD 0.09fF
C6 DFlipFlop_0/Q nQ2 0.09fF
C7 nCLK DFlipFlop_1/latch_diff_1/D 0.08fF
C8 vdd DFlipFlop_3/clock_inverter_0/inverter_cp_x1_0/out 0.03fF
C9 DFlipFlop_1/latch_diff_1/m1_657_280# Q0 0.01fF
C10 CLK Q1 -0.10fF
C11 sky130_fd_sc_hs__or2_1_0/a_63_368# CLK_5 0.06fF
C12 Q1 DFlipFlop_0/latch_diff_1/D 0.06fF
C13 nCLK DFlipFlop_2/nQ 0.09fF
C14 nQ0 sky130_fd_sc_hs__and2_1_1/a_56_136# 0.01fF
C15 nCLK DFlipFlop_0/Q 0.11fF
C16 DFlipFlop_1/latch_diff_1/nD Q0 0.21fF
C17 vdd DFlipFlop_3/clock_inverter_0/inverter_cp_x1_2/in 0.03fF
C18 nCLK nQ2 0.10fF
C19 Q1 Q0 9.65fF
C20 Q1 sky130_fd_sc_hs__and2_1_0/a_56_136# 0.14fF
C21 DFlipFlop_1/D nCLK 0.14fF
C22 CLK DFlipFlop_3/latch_diff_1/D 0.08fF
C23 CLK DFlipFlop_3/clock_inverter_0/inverter_cp_x1_2/in 0.03fF
C24 nQ0 DFlipFlop_1/latch_diff_1/m1_657_280# 0.21fF
C25 DFlipFlop_0/latch_diff_0/D Q1 0.15fF
C26 DFlipFlop_2/latch_diff_1/D nCLK 0.08fF
C27 sky130_fd_sc_hs__or2_1_0/a_63_368# vdd 0.02fF
C28 Q1 DFlipFlop_3/latch_diff_0/D 0.09fF
C29 Q1 Q1_shift 0.36fF
C30 Q1 DFlipFlop_3/latch_diff_1/m1_657_280# 0.28fF
C31 nQ0 DFlipFlop_1/latch_diff_1/nD 0.88fF
C32 DFlipFlop_2/latch_diff_0/D nCLK 0.11fF
C33 vdd sky130_fd_sc_hs__xor2_1_0/a_355_368# 0.03fF
C34 nQ0 Q1 0.06fF
C35 DFlipFlop_2/latch_diff_1/nD nCLK 0.16fF
C36 DFlipFlop_3/nQ nCLK 0.02fF
C37 Q1 DFlipFlop_3/latch_diff_0/m1_657_280# 0.28fF
C38 DFlipFlop_1/latch_diff_0/D nCLK 0.11fF
C39 sky130_fd_sc_hs__xor2_1_0/a_194_125# nCLK 0.11fF
C40 vdd DFlipFlop_2/nQ 0.02fF
C41 CLK DFlipFlop_1/latch_diff_1/D 0.14fF
C42 DFlipFlop_1/D DFlipFlop_1/clock_inverter_0/inverter_cp_x1_0/out 0.03fF
C43 Q1 DFlipFlop_0/D 0.13fF
C44 nQ2 vdd 0.04fF
C45 CLK DFlipFlop_2/nQ 0.13fF
C46 DFlipFlop_1/latch_diff_0/nD CLK 0.08fF
C47 DFlipFlop_1/D vdd 0.25fF
C48 sky130_fd_sc_hs__xor2_1_0/a_355_368# Q0 0.03fF
C49 CLK DFlipFlop_0/Q 0.08fF
C50 DFlipFlop_1/latch_diff_1/D Q0 0.06fF
C51 CLK nQ2 0.17fF
C52 nCLK vdd 0.34fF
C53 DFlipFlop_1/D CLK 0.21fF
C54 Q1 DFlipFlop_2/clock_inverter_0/inverter_cp_x1_2/in 0.20fF
C55 Q1 DFlipFlop_3/latch_diff_0/nD 0.08fF
C56 Q1_shift sky130_fd_sc_hs__or2_1_0/a_63_368# -0.27fF
C57 DFlipFlop_0/Q Q0 0.21fF
C58 nQ2 Q0 0.23fF
C59 vdd CLK_5 0.15fF
C60 DFlipFlop_0/clock_inverter_0/inverter_cp_x1_2/in vdd 0.02fF
C61 DFlipFlop_3/nQ vdd 0.02fF
C62 sky130_fd_sc_hs__and2_1_1/a_143_136# nQ2 0.01fF
C63 CLK DFlipFlop_2/latch_diff_1/D 0.14fF
C64 DFlipFlop_1/D Q0 0.07fF
C65 sky130_fd_sc_hs__xor2_1_0/a_194_125# vdd 0.03fF
C66 nQ0 DFlipFlop_1/latch_diff_1/D 0.91fF
C67 DFlipFlop_3/nQ CLK 0.01fF
C68 nCLK Q0 0.20fF
C69 DFlipFlop_2/latch_diff_1/nD CLK 0.09fF
C70 CLK DFlipFlop_2/latch_diff_0/m1_657_280# 0.28fF
C71 DFlipFlop_1/latch_diff_0/nD nQ0 0.08fF
C72 Q1 DFlipFlop_3/latch_diff_1/nD 1.24fF
C73 DFlipFlop_2/D DFlipFlop_1/latch_diff_1/m1_657_280# 0.04fF
C74 sky130_fd_sc_hs__and2_1_0/a_143_136# Q0 0.03fF
C75 DFlipFlop_1/clock_inverter_0/inverter_cp_x1_0/out vdd 0.02fF
C76 nQ0 nQ2 0.03fF
C77 DFlipFlop_0/clock_inverter_0/inverter_cp_x1_2/in Q0 0.33fF
C78 nQ0 DFlipFlop_1/D 0.12fF
C79 Q1 DFlipFlop_0/latch_diff_1/nD 0.10fF
C80 DFlipFlop_1/latch_diff_0/D Q0 0.42fF