**.subckt tb_top_pll_v3
VSS vss GND {vss} 
VDD vdd vss {vdd} 
Vref A vss PULSE(0 {vin} 0 1p 1p {Tref/2} {Tref}) DC {vin} AC 0 
VD0 D0 vss {vd0} 
I0 net1 vss {iref} 
x2 vdd net1 iref_cp net2 net3 net4 net5 net6 net7 net8 net9 net10 bias
C1 out_to_pad vss 20p m=1
x1 iref_cp vss vdd vco_out vctrl Up QA out_to_buffer A nUp out_to_pad Down nDown QB D0 lf_vc
+ vco_buffer_out biasp pswitch nswitch pfd_reset S0 MC S1 out_by_2 out_to_div out_div n_out_by_2 n_out_div_2
+ out_div_2 out_buffer_div_2 n_out_buffer_div_2 n_clk_0 s1n s0n clk_2_f clk_d clk_out_div clk_5 clk_pre n_clk_1
+ clk_1 clk_0 D1 top_pll_v3
VD1 D1 vss {vd1} 
VMC S1 vss {vin} 
VMC1 S0 vss {vin} 
VMC2 MC vss {vin} 
**** begin user architecture code



* Parameters
.param kp = 1.0
.param vdd = kp*1.8
.param vss = 0.0
.param vin = vdd
.param fref = 100e6
.param Tref = 1/fref
.param iref = 100u
.param vd0 = 0.0
.param vd1 = 0.0

.options TEMP = 100.0
.options RSHUNT = 1e20
.options GMIN = 1e-10

* Models
.lib ~/skywater/skywater-pdk/libraries/sky130_fd_pr_ngspice/latest/models/corners/sky130.lib SS

* Data to save

.ic v(A) = 0.0
.ic v(QA) = 0.0
.ic v(QB) = 0.0
.ic v(Up) = 0.0
.ic v(nUp) = 0.0
.ic v(Down) = 0.0
.ic v(nDown) = 0.0
.ic v(vctrl) = 0.0
.ic v(D0) = 0.0
.ic v(vco_out) = 0.0
.ic v(vco_buffer_out) = 0.0
.ic v(out_to_div) = 0.0
.ic v(out_to_pad) = 0.0
.ic v(out_div_2) = 0.0
.ic v(n_out_div_2) = 0.0
.ic v(out_buffer_div_2) = 0.0
.ic v(n_out_buffer_div_2) = 0.0
.ic v(out_by_2) = 0.0
.ic v(n_out_by_2) = 0.0
.ic v(clk_0) = 0.0
.ic v(n_clk_0) = 0.0
.ic v(clk_1) = 0.0
.ic v(n_clk_1) = 0.0
.ic v(clk_pre) = 0.0
.ic v(clk_5) = 0.0
.ic v(clk_d) = 0.0
.ic v(clk_2_f) = 0.0
.ic v(s1n) = 0.0
.ic v(s0n) = 0.0
.ic v(out_div) = 0.0


* Simulation
.control
	tran 0.01ns 1.5us
	meas tran Tosc trig v(out_to_pad) val=0.9 fall=1005 targ v(out_to_pad) val=0.9 fall=1105
	let  T = wTosc/100.0
	let  f = 1/T
	echo .
	echo ------ PLL simulation ------
	print T f
	*write tb_PLL_tran.raw
	plot v(vctrl) v(pfd_reset)+2 v(nDown)+4 v(Down)+6 v(nUp)+8 v(Up)+10 v(QA)+12 v(QB)+12 v(A)+14
+ v(out_div)+16
 	plot v(out_to_pad)+12 v(out_to_buffer)+9 v(out_to_div)+6 v(out_by_2)+3 v(out_div)
	plot v(out_div) v(out_by_2) v(out_to_div)
	plot v(vctrl)
	plot v(pswitch) v(nswitch) xlimit 1.4us 1.444us
.endc



**** end user architecture code
**.ends

* expanding   symbol:  bias.sym # of pins=12
* sym_path: /home/dhernando/caravel_analog_fulgor/xschem/bias.sym
* sch_path: /home/dhernando/caravel_analog_fulgor/xschem/bias.sch
.subckt bias  vdd iref iref_0 iref_1 iref_2 iref_3 iref_4 iref_5 iref_6 iref_7 iref_8 iref_9
*.iopin iref
*.iopin vdd
*.opin iref_0
*.opin iref_1
*.opin iref_2
*.opin iref_3
*.opin iref_4
*.opin iref_5
*.opin iref_6
*.opin iref_7
*.opin iref_8
*.opin iref_9
XM1 iref iref vbp1 vdd sky130_fd_pr__pfet_01v8_lvt L=0.45 W=4.5 nf=1 ad='int((nf+1)/2) * W/nf * 0.29'
+ as='int((nf+2)/2) * W/nf * 0.29' pd='2*int((nf+1)/2) * (W/nf + 0.29)' ps='2*int((nf+2)/2) * (W/nf + 0.29)'
+ nrd='0.29 / W' nrs='0.29 / W' sa=0 sb=0 sd=0 mult=25 m=25 
XM2 vbp1 vbp1 vdd vdd sky130_fd_pr__pfet_01v8_lvt L=0.45 W=4.5 nf=1 ad='int((nf+1)/2) * W/nf * 0.29'
+ as='int((nf+2)/2) * W/nf * 0.29' pd='2*int((nf+1)/2) * (W/nf + 0.29)' ps='2*int((nf+2)/2) * (W/nf + 0.29)'
+ nrd='0.29 / W' nrs='0.29 / W' sa=0 sb=0 sd=0 mult=25 m=25 
XM3 net1 vbp1 vdd vdd sky130_fd_pr__pfet_01v8_lvt L=0.45 W=4.5 nf=1 ad='int((nf+1)/2) * W/nf * 0.29'
+ as='int((nf+2)/2) * W/nf * 0.29' pd='2*int((nf+1)/2) * (W/nf + 0.29)' ps='2*int((nf+2)/2) * (W/nf + 0.29)'
+ nrd='0.29 / W' nrs='0.29 / W' sa=0 sb=0 sd=0 mult=25 m=25 
XM4 iref_0 iref net1 vdd sky130_fd_pr__pfet_01v8_lvt L=0.45 W=4.5 nf=1 ad='int((nf+1)/2) * W/nf * 0.29'
+ as='int((nf+2)/2) * W/nf * 0.29' pd='2*int((nf+1)/2) * (W/nf + 0.29)' ps='2*int((nf+2)/2) * (W/nf + 0.29)'
+ nrd='0.29 / W' nrs='0.29 / W' sa=0 sb=0 sd=0 mult=25 m=25 
XM5 net2 vbp1 vdd vdd sky130_fd_pr__pfet_01v8_lvt L=0.45 W=4.5 nf=1 ad='int((nf+1)/2) * W/nf * 0.29'
+ as='int((nf+2)/2) * W/nf * 0.29' pd='2*int((nf+1)/2) * (W/nf + 0.29)' ps='2*int((nf+2)/2) * (W/nf + 0.29)'
+ nrd='0.29 / W' nrs='0.29 / W' sa=0 sb=0 sd=0 mult=25 m=25 
XM6 iref_1 iref net2 vdd sky130_fd_pr__pfet_01v8_lvt L=0.45 W=4.5 nf=1 ad='int((nf+1)/2) * W/nf * 0.29'
+ as='int((nf+2)/2) * W/nf * 0.29' pd='2*int((nf+1)/2) * (W/nf + 0.29)' ps='2*int((nf+2)/2) * (W/nf + 0.29)'
+ nrd='0.29 / W' nrs='0.29 / W' sa=0 sb=0 sd=0 mult=25 m=25 
XM7 net3 vbp1 vdd vdd sky130_fd_pr__pfet_01v8_lvt L=0.45 W=4.5 nf=1 ad='int((nf+1)/2) * W/nf * 0.29'
+ as='int((nf+2)/2) * W/nf * 0.29' pd='2*int((nf+1)/2) * (W/nf + 0.29)' ps='2*int((nf+2)/2) * (W/nf + 0.29)'
+ nrd='0.29 / W' nrs='0.29 / W' sa=0 sb=0 sd=0 mult=25 m=25 
XM8 iref_2 iref net3 vdd sky130_fd_pr__pfet_01v8_lvt L=0.45 W=4.5 nf=1 ad='int((nf+1)/2) * W/nf * 0.29'
+ as='int((nf+2)/2) * W/nf * 0.29' pd='2*int((nf+1)/2) * (W/nf + 0.29)' ps='2*int((nf+2)/2) * (W/nf + 0.29)'
+ nrd='0.29 / W' nrs='0.29 / W' sa=0 sb=0 sd=0 mult=25 m=25 
XM9 net4 vbp1 vdd vdd sky130_fd_pr__pfet_01v8_lvt L=0.45 W=4.5 nf=1 ad='int((nf+1)/2) * W/nf * 0.29'
+ as='int((nf+2)/2) * W/nf * 0.29' pd='2*int((nf+1)/2) * (W/nf + 0.29)' ps='2*int((nf+2)/2) * (W/nf + 0.29)'
+ nrd='0.29 / W' nrs='0.29 / W' sa=0 sb=0 sd=0 mult=25 m=25 
XM10 iref_3 iref net4 vdd sky130_fd_pr__pfet_01v8_lvt L=0.45 W=4.5 nf=1 ad='int((nf+1)/2) * W/nf * 0.29'
+ as='int((nf+2)/2) * W/nf * 0.29' pd='2*int((nf+1)/2) * (W/nf + 0.29)' ps='2*int((nf+2)/2) * (W/nf + 0.29)'
+ nrd='0.29 / W' nrs='0.29 / W' sa=0 sb=0 sd=0 mult=25 m=25 
XM11 net5 vbp1 vdd vdd sky130_fd_pr__pfet_01v8_lvt L=0.45 W=4.5 nf=1 ad='int((nf+1)/2) * W/nf * 0.29'
+ as='int((nf+2)/2) * W/nf * 0.29' pd='2*int((nf+1)/2) * (W/nf + 0.29)' ps='2*int((nf+2)/2) * (W/nf + 0.29)'
+ nrd='0.29 / W' nrs='0.29 / W' sa=0 sb=0 sd=0 mult=25 m=25 
XM12 iref_4 iref net5 vdd sky130_fd_pr__pfet_01v8_lvt L=0.45 W=4.5 nf=1 ad='int((nf+1)/2) * W/nf * 0.29'
+ as='int((nf+2)/2) * W/nf * 0.29' pd='2*int((nf+1)/2) * (W/nf + 0.29)' ps='2*int((nf+2)/2) * (W/nf + 0.29)'
+ nrd='0.29 / W' nrs='0.29 / W' sa=0 sb=0 sd=0 mult=25 m=25 
XM13 net6 vbp1 vdd vdd sky130_fd_pr__pfet_01v8_lvt L=0.45 W=4.5 nf=1 ad='int((nf+1)/2) * W/nf * 0.29'
+ as='int((nf+2)/2) * W/nf * 0.29' pd='2*int((nf+1)/2) * (W/nf + 0.29)' ps='2*int((nf+2)/2) * (W/nf + 0.29)'
+ nrd='0.29 / W' nrs='0.29 / W' sa=0 sb=0 sd=0 mult=25 m=25 
XM14 iref_5 iref net6 vdd sky130_fd_pr__pfet_01v8_lvt L=0.45 W=4.5 nf=1 ad='int((nf+1)/2) * W/nf * 0.29'
+ as='int((nf+2)/2) * W/nf * 0.29' pd='2*int((nf+1)/2) * (W/nf + 0.29)' ps='2*int((nf+2)/2) * (W/nf + 0.29)'
+ nrd='0.29 / W' nrs='0.29 / W' sa=0 sb=0 sd=0 mult=25 m=25 
XM15 net7 vbp1 vdd vdd sky130_fd_pr__pfet_01v8_lvt L=0.45 W=4.5 nf=1 ad='int((nf+1)/2) * W/nf * 0.29'
+ as='int((nf+2)/2) * W/nf * 0.29' pd='2*int((nf+1)/2) * (W/nf + 0.29)' ps='2*int((nf+2)/2) * (W/nf + 0.29)'
+ nrd='0.29 / W' nrs='0.29 / W' sa=0 sb=0 sd=0 mult=25 m=25 
XM16 iref_6 iref net7 vdd sky130_fd_pr__pfet_01v8_lvt L=0.45 W=4.5 nf=1 ad='int((nf+1)/2) * W/nf * 0.29'
+ as='int((nf+2)/2) * W/nf * 0.29' pd='2*int((nf+1)/2) * (W/nf + 0.29)' ps='2*int((nf+2)/2) * (W/nf + 0.29)'
+ nrd='0.29 / W' nrs='0.29 / W' sa=0 sb=0 sd=0 mult=25 m=25 
XM17 net8 vbp1 vdd vdd sky130_fd_pr__pfet_01v8_lvt L=0.45 W=4.5 nf=1 ad='int((nf+1)/2) * W/nf * 0.29'
+ as='int((nf+2)/2) * W/nf * 0.29' pd='2*int((nf+1)/2) * (W/nf + 0.29)' ps='2*int((nf+2)/2) * (W/nf + 0.29)'
+ nrd='0.29 / W' nrs='0.29 / W' sa=0 sb=0 sd=0 mult=25 m=25 
XM18 iref_7 iref net8 vdd sky130_fd_pr__pfet_01v8_lvt L=0.45 W=4.5 nf=1 ad='int((nf+1)/2) * W/nf * 0.29'
+ as='int((nf+2)/2) * W/nf * 0.29' pd='2*int((nf+1)/2) * (W/nf + 0.29)' ps='2*int((nf+2)/2) * (W/nf + 0.29)'
+ nrd='0.29 / W' nrs='0.29 / W' sa=0 sb=0 sd=0 mult=25 m=25 
XM19 net9 vbp1 vdd vdd sky130_fd_pr__pfet_01v8_lvt L=0.45 W=4.5 nf=1 ad='int((nf+1)/2) * W/nf * 0.29'
+ as='int((nf+2)/2) * W/nf * 0.29' pd='2*int((nf+1)/2) * (W/nf + 0.29)' ps='2*int((nf+2)/2) * (W/nf + 0.29)'
+ nrd='0.29 / W' nrs='0.29 / W' sa=0 sb=0 sd=0 mult=25 m=25 
XM20 iref_8 iref net9 vdd sky130_fd_pr__pfet_01v8_lvt L=0.45 W=4.5 nf=1 ad='int((nf+1)/2) * W/nf * 0.29'
+ as='int((nf+2)/2) * W/nf * 0.29' pd='2*int((nf+1)/2) * (W/nf + 0.29)' ps='2*int((nf+2)/2) * (W/nf + 0.29)'
+ nrd='0.29 / W' nrs='0.29 / W' sa=0 sb=0 sd=0 mult=25 m=25 
XM21 net10 vbp1 vdd vdd sky130_fd_pr__pfet_01v8_lvt L=0.45 W=4.5 nf=1 ad='int((nf+1)/2) * W/nf * 0.29'
+ as='int((nf+2)/2) * W/nf * 0.29' pd='2*int((nf+1)/2) * (W/nf + 0.29)' ps='2*int((nf+2)/2) * (W/nf + 0.29)'
+ nrd='0.29 / W' nrs='0.29 / W' sa=0 sb=0 sd=0 mult=25 m=25 
XM22 iref_9 iref net10 vdd sky130_fd_pr__pfet_01v8_lvt L=0.45 W=4.5 nf=1 ad='int((nf+1)/2) * W/nf * 0.29'
+ as='int((nf+2)/2) * W/nf * 0.29' pd='2*int((nf+1)/2) * (W/nf + 0.29)' ps='2*int((nf+2)/2) * (W/nf + 0.29)'
+ nrd='0.29 / W' nrs='0.29 / W' sa=0 sb=0 sd=0 mult=25 m=25 
.ends


* expanding   symbol:  top_pll_v3.sym # of pins=44
* sym_path: /home/dhernando/caravel_analog_fulgor/xschem/top_pll_v3.sym
* sch_path: /home/dhernando/caravel_analog_fulgor/xschem/top_pll_v3.sch
.subckt top_pll_v3  iref_cp vss vdd vco_out vco_vctrl Up pfd_QA out_to_buffer in_ref nUp out_to_pad
+ Down nDown pfd_QB lf_D0 lf_vc out_first_buffer cp_biasp cp_pswitch cp_nswitch pfd_reset s_0 MC s_1
+ out_by_2 out_to_div out_div n_out_by_2 n_out_div_2 out_div_2 n_out_buffer_div_2 out_buffer_div_2 n_clk_0 s1n
+ s0n clk_2_f clk_d clk_out_mux21 clk_5 clk_pre n_clk_1 clk_1 clk_0 lf_D0
*.iopin vdd
*.iopin vss
*.ipin in_ref
*.iopin pfd_QA
*.iopin pfd_QB
*.iopin Up
*.iopin nUp
*.iopin Down
*.iopin nDown
*.iopin pfd_reset
*.iopin cp_nswitch
*.iopin cp_pswitch
*.iopin cp_biasp
*.ipin iref_cp
*.iopin lf_vc
*.ipin vco_D0
*.iopin vco_vctrl
*.iopin vco_out
*.iopin out_first_buffer
*.iopin out_to_buffer
*.iopin out_to_div
*.iopin out_by_2
*.iopin n_out_by_2
*.iopin out_div_2
*.iopin n_out_div_2
*.iopin out_buffer_div_2
*.iopin n_out_buffer_div_2
*.iopin out_div
*.opin out_to_pad
*.iopin clk_0
*.iopin n_clk_0
*.iopin clk_1
*.iopin n_clk_1
*.iopin clk_pre
*.iopin clk_5
*.iopin clk_out_mux21
*.iopin clk_d
*.iopin clk_2_f
*.iopin s0n
*.iopin s1n
*.ipin MC
*.ipin s_0
*.ipin s_1
x1 vss vdd pfd_QA in_ref out_div pfd_QB pfd_reset PFD
x2 Up vdd pfd_QA nUp Down pfd_QB vss nDown pfd_cp_interface
x3 vdd Up nUp vco_vctrl Down nDown vss iref_cp cp_nswitch cp_pswitch cp_biasp charge_pump
x5 vdd vco_out vco_D0 vco_vctrl vss csvco
x6 vdd vco_out out_to_buffer out_to_div vss out_first_buffer ring_osc_buffer
x7 vdd out_to_pad out_to_buffer vss buffer_salida
x8 n_out_by_2 vss out_to_div vdd out_by_2 out_div_2 n_out_div_2 out_buffer_div_2 n_out_buffer_div_2
+ div_by_2
x9 s1n s0n s_0 s_1 MC clk_0 clk_pre vss vdd clk_out_mux21 clk_d n_clk_0 out_div out_by_2 clk_5
+ clk_2_f n_out_by_2 clk_1 n_clk_1 freq_div
x4 vss vco_vctrl lf_vc loop_filter
.ends


* expanding   symbol:  PFD.sym # of pins=7
* sym_path: /home/dhernando/caravel_analog_fulgor/xschem/PFD.sym
* sch_path: /home/dhernando/caravel_analog_fulgor/xschem/PFD.sch
.subckt PFD  vss vdd Up A B Down Reset
*.iopin vdd
*.iopin vss
*.ipin A
*.ipin B
*.opin Down
*.opin Up
*.iopin Reset
x1 vdd A Up Reset vss DFF
x2 vdd B Down Reset vss DFF
x3 vdd Reset Up Down vss and_pfd
.ends


* expanding   symbol:  pfd_cp_interface.sym # of pins=8
* sym_path: /home/dhernando/caravel_analog_fulgor/xschem/pfd_cp_interface.sym
* sch_path: /home/dhernando/caravel_analog_fulgor/xschem/pfd_cp_interface.sch
.subckt pfd_cp_interface  Up vdd QA nUp Down QB vss nDown
*.iopin vdd
*.iopin vss
*.ipin QA
*.ipin QB
*.opin nDown
*.opin Down
*.opin nUp
*.opin Up
x5 vdd nDown nQB vss trans_gate
x3 vdd Up nQA vss inverter_cp_x1
x1 vdd nQB QB vss inverter_cp_x1
x2 vdd nQA QA vss inverter_cp_x1
x4 vdd nUp Up vss inverter_cp_x2
x6 vdd Down nDown vss inverter_cp_x2
.ends


* expanding   symbol:  charge_pump.sym # of pins=11
* sym_path: /home/dhernando/caravel_analog_fulgor/xschem/charge_pump.sym
* sch_path: /home/dhernando/caravel_analog_fulgor/xschem/charge_pump.sch
.subckt charge_pump  vdd Up nUp out Down nDown vss iref nswitch pswitch biasp
*.iopin vss
*.iopin vdd
*.ipin Down
*.ipin nUp
*.ipin Up
*.ipin nDown
*.opin out
*.iopin nswitch
*.iopin pswitch
*.ipin iref
*.iopin biasp
XM1 out pswitch vdd vdd sky130_fd_pr__pfet_01v8 L=0.15 W=1.5 nf=1 ad='int((nf+1)/2) * W/nf * 0.29' as='int((nf+2)/2) * W/nf * 0.29'
+ pd='2*int((nf+1)/2) * (W/nf + 0.29)' ps='2*int((nf+2)/2) * (W/nf + 0.29)' nrd='0.29 / W' nrs='0.29 / W'
+ sa=0 sb=0 sd=0 mult=25 m=25 
XM2 out nswitch vss vss sky130_fd_pr__nfet_01v8 L=0.15 W=0.75 nf=1 ad='int((nf+1)/2) * W/nf * 0.29' as='int((nf+2)/2) * W/nf * 0.29'
+ pd='2*int((nf+1)/2) * (W/nf + 0.29)' ps='2*int((nf+2)/2) * (W/nf + 0.29)' nrd='0.29 / W' nrs='0.29 / W'
+ sa=0 sb=0 sd=0 mult=25 m=25 
XM3 pswitch nUp biasp vdd sky130_fd_pr__pfet_01v8 L=0.15 W=1.5 nf=1 ad='int((nf+1)/2) * W/nf * 0.29'
+ as='int((nf+2)/2) * W/nf * 0.29' pd='2*int((nf+1)/2) * (W/nf + 0.29)' ps='2*int((nf+2)/2) * (W/nf + 0.29)'
+ nrd='0.29 / W' nrs='0.29 / W' sa=0 sb=0 sd=0 mult=10 m=10 
XM4 pswitch Up vdd vdd sky130_fd_pr__pfet_01v8 L=0.15 W=1.5 nf=1 ad='int((nf+1)/2) * W/nf * 0.29' as='int((nf+2)/2) * W/nf * 0.29'
+ pd='2*int((nf+1)/2) * (W/nf + 0.29)' ps='2*int((nf+2)/2) * (W/nf + 0.29)' nrd='0.29 / W' nrs='0.29 / W'
+ sa=0 sb=0 sd=0 mult=10 m=10 
XM5 nswitch Down iref vss sky130_fd_pr__nfet_01v8 L=0.15 W=0.75 nf=1 ad='int((nf+1)/2) * W/nf * 0.29'
+ as='int((nf+2)/2) * W/nf * 0.29' pd='2*int((nf+1)/2) * (W/nf + 0.29)' ps='2*int((nf+2)/2) * (W/nf + 0.29)'
+ nrd='0.29 / W' nrs='0.29 / W' sa=0 sb=0 sd=0 mult=10 m=10 
XM6 nswitch nDown vss vss sky130_fd_pr__nfet_01v8 L=0.15 W=0.75 nf=1 ad='int((nf+1)/2) * W/nf * 0.29'
+ as='int((nf+2)/2) * W/nf * 0.29' pd='2*int((nf+1)/2) * (W/nf + 0.29)' ps='2*int((nf+2)/2) * (W/nf + 0.29)'
+ nrd='0.29 / W' nrs='0.29 / W' sa=0 sb=0 sd=0 mult=10 m=10 
XM7 pswitch nUp pswitch vdd sky130_fd_pr__pfet_01v8 L=2 W=4.5 nf=1 ad='int((nf+1)/2) * W/nf * 0.29' as='int((nf+2)/2) * W/nf * 0.29'
+ pd='2*int((nf+1)/2) * (W/nf + 0.29)' ps='2*int((nf+2)/2) * (W/nf + 0.29)' nrd='0.29 / W' nrs='0.29 / W'
+ sa=0 sb=0 sd=0 mult=10 m=10 
XM8 nswitch Down nswitch vss sky130_fd_pr__nfet_01v8 L=1.5 W=0.75 nf=1 ad='int((nf+1)/2) * W/nf * 0.29'
+ as='int((nf+2)/2) * W/nf * 0.29' pd='2*int((nf+1)/2) * (W/nf + 0.29)' ps='2*int((nf+2)/2) * (W/nf + 0.29)'
+ nrd='0.29 / W' nrs='0.29 / W' sa=0 sb=0 sd=0 mult=10 m=10 
XM9 iref iref vss vss sky130_fd_pr__nfet_01v8 L=0.15 W=0.75 nf=1 ad='int((nf+1)/2) * W/nf * 0.29' as='int((nf+2)/2) * W/nf * 0.29'
+ pd='2*int((nf+1)/2) * (W/nf + 0.29)' ps='2*int((nf+2)/2) * (W/nf + 0.29)' nrd='0.29 / W' nrs='0.29 / W'
+ sa=0 sb=0 sd=0 mult=25 m=25 
XM10 biasp iref vss vss sky130_fd_pr__nfet_01v8 L=0.15 W=0.75 nf=1 ad='int((nf+1)/2) * W/nf * 0.29' as='int((nf+2)/2) * W/nf * 0.29'
+ pd='2*int((nf+1)/2) * (W/nf + 0.29)' ps='2*int((nf+2)/2) * (W/nf + 0.29)' nrd='0.29 / W' nrs='0.29 / W'
+ sa=0 sb=0 sd=0 mult=25 m=25 
XM11 biasp biasp vdd vdd sky130_fd_pr__pfet_01v8 L=0.15 W=1.5 nf=1 ad='int((nf+1)/2) * W/nf * 0.29' as='int((nf+2)/2) * W/nf * 0.29'
+ pd='2*int((nf+1)/2) * (W/nf + 0.29)' ps='2*int((nf+2)/2) * (W/nf + 0.29)' nrd='0.29 / W' nrs='0.29 / W'
+ sa=0 sb=0 sd=0 mult=25 m=25 
.ends


* expanding   symbol:  csvco.sym # of pins=5
* sym_path: /home/dhernando/caravel_analog_fulgor/xschem/csvco.sym
* sch_path: /home/dhernando/caravel_analog_fulgor/xschem/csvco.sch
.subckt csvco  vdd out D0 vctrl vss
*.ipin vctrl
*.iopin vss
*.iopin vdd
*.opin out
*.ipin D0
XM1 vbp vctrl vss vss sky130_fd_pr__nfet_01v8 L=0.15 W=1.5 nf=1 ad='int((nf+1)/2) * W/nf * 0.29' as='int((nf+2)/2) * W/nf * 0.29'
+ pd='2*int((nf+1)/2) * (W/nf + 0.29)' ps='2*int((nf+2)/2) * (W/nf + 0.29)' nrd='0.29 / W' nrs='0.29 / W'
+ sa=0 sb=0 sd=0 mult=1 m=1 
XM2 vbp vbp vdd vdd sky130_fd_pr__pfet_01v8 L=0.15 W=1.5 nf=1 ad='int((nf+1)/2) * W/nf * 0.29' as='int((nf+2)/2) * W/nf * 0.29'
+ pd='2*int((nf+1)/2) * (W/nf + 0.29)' ps='2*int((nf+2)/2) * (W/nf + 0.29)' nrd='0.29 / W' nrs='0.29 / W'
+ sa=0 sb=0 sd=0 mult=1 m=1 
x1 vdd vbp out out1 vctrl vss D0 csvco_branch
x2 vdd vbp out1 out2 vctrl vss D0 csvco_branch
x3 vdd vbp out2 out vctrl vss D0 csvco_branch
.ends


* expanding   symbol:  ring_osc_buffer.sym # of pins=6
* sym_path: /home/dhernando/caravel_analog_fulgor/xschem/ring_osc_buffer.sym
* sch_path: /home/dhernando/caravel_analog_fulgor/xschem/ring_osc_buffer.sch
.subckt ring_osc_buffer  vdd in_vco out_pad out_div vss o1
*.iopin vdd
*.iopin vss
*.ipin in_vco
*.opin out_pad
*.opin out_div
*.iopin o1
x1 vdd o1 in_vco vss inverter_min_x2
x2 vdd out_div o1 vss inverter_min_x4
x3 vdd out_pad out_div vss inverter_min_x4
.ends


* expanding   symbol:  buffer_salida.sym # of pins=4
* sym_path: /home/dhernando/caravel_analog_fulgor/xschem/buffer_salida.sym
* sch_path: /home/dhernando/caravel_analog_fulgor/xschem/buffer_salida.sch
.subckt buffer_salida  vdd out in vss
*.iopin vss
*.ipin in
*.iopin vdd
*.opin out
XM2 net1 in vdd vdd sky130_fd_pr__pfet_01v8 L=0.15 W=6 nf=1 ad='int((nf+1)/2) * W/nf * 0.29' as='int((nf+2)/2) * W/nf * 0.29'
+ pd='2*int((nf+1)/2) * (W/nf + 0.29)' ps='2*int((nf+2)/2) * (W/nf + 0.29)' nrd='0.29 / W' nrs='0.29 / W'
+ sa=0 sb=0 sd=0 mult=4 m=4 
XM1 net1 in vss vss sky130_fd_pr__nfet_01v8 L=0.15 W=3 nf=1 ad='int((nf+1)/2) * W/nf * 0.29' as='int((nf+2)/2) * W/nf * 0.29'
+ pd='2*int((nf+1)/2) * (W/nf + 0.29)' ps='2*int((nf+2)/2) * (W/nf + 0.29)' nrd='0.29 / W' nrs='0.29 / W'
+ sa=0 sb=0 sd=0 mult=4 m=4 
XM3 net2 net1 vdd vdd sky130_fd_pr__pfet_01v8 L=0.15 W=6 nf=1 ad='int((nf+1)/2) * W/nf * 0.29' as='int((nf+2)/2) * W/nf * 0.29'
+ pd='2*int((nf+1)/2) * (W/nf + 0.29)' ps='2*int((nf+2)/2) * (W/nf + 0.29)' nrd='0.29 / W' nrs='0.29 / W'
+ sa=0 sb=0 sd=0 mult=32 m=32 
XM4 net2 net1 vss vss sky130_fd_pr__nfet_01v8 L=0.15 W=3 nf=1 ad='int((nf+1)/2) * W/nf * 0.29' as='int((nf+2)/2) * W/nf * 0.29'
+ pd='2*int((nf+1)/2) * (W/nf + 0.29)' ps='2*int((nf+2)/2) * (W/nf + 0.29)' nrd='0.29 / W' nrs='0.29 / W'
+ sa=0 sb=0 sd=0 mult=32 m=32 
XM5 out net2 vdd vdd sky130_fd_pr__pfet_01v8 L=0.15 W=6 nf=1 ad='int((nf+1)/2) * W/nf * 0.29' as='int((nf+2)/2) * W/nf * 0.29'
+ pd='2*int((nf+1)/2) * (W/nf + 0.29)' ps='2*int((nf+2)/2) * (W/nf + 0.29)' nrd='0.29 / W' nrs='0.29 / W'
+ sa=0 sb=0 sd=0 mult=256 m=256 
XM6 out net2 vss vss sky130_fd_pr__nfet_01v8 L=0.15 W=3 nf=1 ad='int((nf+1)/2) * W/nf * 0.29' as='int((nf+2)/2) * W/nf * 0.29'
+ pd='2*int((nf+1)/2) * (W/nf + 0.29)' ps='2*int((nf+2)/2) * (W/nf + 0.29)' nrd='0.29 / W' nrs='0.29 / W'
+ sa=0 sb=0 sd=0 mult=256 m=256 
.ends


* expanding   symbol:  div_by_2.sym # of pins=9
* sym_path: /home/dhernando/caravel_analog_fulgor/xschem/div_by_2.sym
* sch_path: /home/dhernando/caravel_analog_fulgor/xschem/div_by_2.sch
.subckt div_by_2  nCLK_2 vss CLK vdd CLK_2 out_div nout_div o1 o2
*.ipin CLK
*.opin CLK_2
*.iopin vss
*.iopin vdd
*.opin nCLK_2
*.iopin nout_div
*.iopin o2
*.iopin o1
*.iopin out_div
x1 vdd out_div nout_div vss nout_div CLK_d nCLK_d DFlipFlop
x2 vdd CLK_d CLK nCLK_d vss clock_inverter
x3 vdd o1 out_div vss inverter_min_x2
x4 vdd CLK_2 o1 vss inverter_min_x4
x5 vdd o2 nout_div vss inverter_min_x2
x6 vdd nCLK_2 o2 vss inverter_min_x4
.ends


* expanding   symbol:  freq_div.sym # of pins=19
* sym_path: /home/dhernando/caravel_analog_fulgor/xschem/freq_div.sym
* sch_path: /home/dhernando/caravel_analog_fulgor/xschem/freq_div.sch
.subckt freq_div  s_1_n s_0_n s_0 s_1 MC clk_0 clk_pre vss vdd clk_out_mux21 clk_d n_clk_0 out in_a
+ clk_5 clk_2 in_b clk_1 n_clk_1
*.ipin s_0
*.iopin vdd
*.iopin vss
*.ipin in_a
*.ipin in_b
*.opin out
*.ipin MC
*.ipin s_1
*.iopin clk_0
*.iopin n_clk_0
*.iopin clk_1
*.iopin n_clk_1
*.iopin clk_pre
*.iopin clk_5
*.iopin clk_out_mux21
*.iopin clk_d
*.iopin clk_2
*.iopin s_0_n
*.iopin s_1_n
x2 vdd clk_pre clk_0 n_clk_0 vss MC net2 net1 net3 net4 prescaler_23
x3 net14 vss clk_out_mux21 vdd clk_2 net5 net6 net7 net8 div_by_2
x4 vdd clk_5 clk_1 vss n_clk_1 net9 net10 net12 net13 net11 div_by_5
x9 vdd s_0_n s_0 vss inverter_min_x2
x1 vdd vss in_a in_b n_clk_0 clk_0 s_0 n_clk_1 clk_1 s_0_n mux2to4
x6 vdd vss clk_out_mux21 clk_pre s_0 clk_5 s_0_n mux2to1
x5 vdd vss out clk_d s_1 clk_2 s_1_n mux2to1
x7 vdd s_1_n s_1 vss inverter_min_x2
x8 vdd net15 clk_out_mux21 vss inverter_min_x2
x10 vdd clk_d net15 vss inverter_min_x4
.ends


* expanding   symbol:  loop_filter.sym # of pins=3
* sym_path: /home/dhernando/caravel_analog_fulgor/xschem/loop_filter.sym
* sch_path: /home/dhernando/caravel_analog_fulgor/xschem/loop_filter.sch
.subckt loop_filter  vss in vc_pex
*.iopin in
*.iopin vss
*.iopin vc_pex
x1 in net1 vss res_loop_filter
x2 vc_pex net1 vss res_loop_filter
x3 vc_pex net1 vss res_loop_filter
x4 vc_pex vss cap1_loop_filter
x5 in vss cap2_loop_filter
.ends


* expanding   symbol:  DFF.sym # of pins=5
* sym_path: /home/dhernando/caravel_analog_fulgor/xschem/DFF.sym
* sch_path: /home/dhernando/caravel_analog_fulgor/xschem/DFF.sch
.subckt DFF  D CLK Q Reset vss
*.ipin D
*.ipin CLK
*.opin Q
*.ipin Reset
*.iopin vss
x1 D CLK Q P vss nor
x2 D P P1 Q vss nor
x3 D P P2 P1 vss nor
x4 D P1 Reset P2 vss nor
.ends


* expanding   symbol:  and_pfd.sym # of pins=5
* sym_path: /home/dhernando/caravel_analog_fulgor/xschem/and_pfd.sym
* sch_path: /home/dhernando/caravel_analog_fulgor/xschem/and_pfd.sch
.subckt and_pfd  vdd out A B vss
*.iopin vdd
*.iopin vss
*.opin out
*.ipin A
*.ipin B
XM1 out_nand A net1 vss sky130_fd_pr__nfet_01v8 L=0.15 W=0.45 nf=1 ad='int((nf+1)/2) * W/nf * 0.29' as='int((nf+2)/2) * W/nf * 0.29'
+ pd='2*int((nf+1)/2) * (W/nf + 0.29)' ps='2*int((nf+2)/2) * (W/nf + 0.29)' nrd='0.29 / W' nrs='0.29 / W'
+ sa=0 sb=0 sd=0 mult=1 m=1 
XM2 out_nand A vdd vdd sky130_fd_pr__pfet_01v8 L=0.15 W=0.9 nf=1 ad='int((nf+1)/2) * W/nf * 0.29' as='int((nf+2)/2) * W/nf * 0.29'
+ pd='2*int((nf+1)/2) * (W/nf + 0.29)' ps='2*int((nf+2)/2) * (W/nf + 0.29)' nrd='0.29 / W' nrs='0.29 / W'
+ sa=0 sb=0 sd=0 mult=1 m=1 
XM3 net1 B vss vss sky130_fd_pr__nfet_01v8 L=0.15 W=0.45 nf=1 ad='int((nf+1)/2) * W/nf * 0.29' as='int((nf+2)/2) * W/nf * 0.29'
+ pd='2*int((nf+1)/2) * (W/nf + 0.29)' ps='2*int((nf+2)/2) * (W/nf + 0.29)' nrd='0.29 / W' nrs='0.29 / W'
+ sa=0 sb=0 sd=0 mult=1 m=1 
XM4 out_nand B net2 vss sky130_fd_pr__nfet_01v8 L=0.15 W=0.45 nf=1 ad='int((nf+1)/2) * W/nf * 0.29' as='int((nf+2)/2) * W/nf * 0.29'
+ pd='2*int((nf+1)/2) * (W/nf + 0.29)' ps='2*int((nf+2)/2) * (W/nf + 0.29)' nrd='0.29 / W' nrs='0.29 / W'
+ sa=0 sb=0 sd=0 mult=1 m=1 
XM5 net2 A vss vss sky130_fd_pr__nfet_01v8 L=0.15 W=0.45 nf=1 ad='int((nf+1)/2) * W/nf * 0.29' as='int((nf+2)/2) * W/nf * 0.29'
+ pd='2*int((nf+1)/2) * (W/nf + 0.29)' ps='2*int((nf+2)/2) * (W/nf + 0.29)' nrd='0.29 / W' nrs='0.29 / W'
+ sa=0 sb=0 sd=0 mult=1 m=1 
XM6 out_nand B vdd vdd sky130_fd_pr__pfet_01v8 L=0.15 W=0.9 nf=1 ad='int((nf+1)/2) * W/nf * 0.29' as='int((nf+2)/2) * W/nf * 0.29'
+ pd='2*int((nf+1)/2) * (W/nf + 0.29)' ps='2*int((nf+2)/2) * (W/nf + 0.29)' nrd='0.29 / W' nrs='0.29 / W'
+ sa=0 sb=0 sd=0 mult=1 m=1 
XM7 out out_nand vdd vdd sky130_fd_pr__pfet_01v8 L=0.15 W=0.9 nf=1 ad='int((nf+1)/2) * W/nf * 0.29' as='int((nf+2)/2) * W/nf * 0.29'
+ pd='2*int((nf+1)/2) * (W/nf + 0.29)' ps='2*int((nf+2)/2) * (W/nf + 0.29)' nrd='0.29 / W' nrs='0.29 / W'
+ sa=0 sb=0 sd=0 mult=1 m=1 
XM8 out out_nand vss vss sky130_fd_pr__nfet_01v8 L=0.15 W=0.45 nf=1 ad='int((nf+1)/2) * W/nf * 0.29'
+ as='int((nf+2)/2) * W/nf * 0.29' pd='2*int((nf+1)/2) * (W/nf + 0.29)' ps='2*int((nf+2)/2) * (W/nf + 0.29)'
+ nrd='0.29 / W' nrs='0.29 / W' sa=0 sb=0 sd=0 mult=1 m=1 
.ends


* expanding   symbol:  trans_gate.sym # of pins=4
* sym_path: /home/dhernando/caravel_analog_fulgor/xschem/trans_gate.sym
* sch_path: /home/dhernando/caravel_analog_fulgor/xschem/trans_gate.sch
.subckt trans_gate  vdd out in vss
*.iopin vss
*.ipin in
*.opin out
*.iopin vdd
XM2 out vss in vdd sky130_fd_pr__pfet_01v8 L=0.15 W=1.25 nf=1 ad='int((nf+1)/2) * W/nf * 0.29' as='int((nf+2)/2) * W/nf * 0.29'
+ pd='2*int((nf+1)/2) * (W/nf + 0.29)' ps='2*int((nf+2)/2) * (W/nf + 0.29)' nrd='0.29 / W' nrs='0.29 / W'
+ sa=0 sb=0 sd=0 mult=3 m=3 
XM1 out vdd in vss sky130_fd_pr__nfet_01v8 L=0.15 W=1.25 nf=1 ad='int((nf+1)/2) * W/nf * 0.29' as='int((nf+2)/2) * W/nf * 0.29'
+ pd='2*int((nf+1)/2) * (W/nf + 0.29)' ps='2*int((nf+2)/2) * (W/nf + 0.29)' nrd='0.29 / W' nrs='0.29 / W'
+ sa=0 sb=0 sd=0 mult=3 m=3 
.ends


* expanding   symbol:  inverter_cp_x1.sym # of pins=4
* sym_path: /home/dhernando/caravel_analog_fulgor/xschem/inverter_cp_x1.sym
* sch_path: /home/dhernando/caravel_analog_fulgor/xschem/inverter_cp_x1.sch
.subckt inverter_cp_x1  vdd out in vss
*.iopin vss
*.ipin in
*.opin out
*.iopin vdd
XM2 out in vdd vdd sky130_fd_pr__pfet_01v8 L=0.15 W=1.25 nf=1 ad='int((nf+1)/2) * W/nf * 0.29' as='int((nf+2)/2) * W/nf * 0.29'
+ pd='2*int((nf+1)/2) * (W/nf + 0.29)' ps='2*int((nf+2)/2) * (W/nf + 0.29)' nrd='0.29 / W' nrs='0.29 / W'
+ sa=0 sb=0 sd=0 mult=3 m=3 
XM1 out in vss vss sky130_fd_pr__nfet_01v8 L=0.15 W=1.25 nf=1 ad='int((nf+1)/2) * W/nf * 0.29' as='int((nf+2)/2) * W/nf * 0.29'
+ pd='2*int((nf+1)/2) * (W/nf + 0.29)' ps='2*int((nf+2)/2) * (W/nf + 0.29)' nrd='0.29 / W' nrs='0.29 / W'
+ sa=0 sb=0 sd=0 mult=3 m=3 
.ends


* expanding   symbol:  inverter_cp_x2.sym # of pins=4
* sym_path: /home/dhernando/caravel_analog_fulgor/xschem/inverter_cp_x2.sym
* sch_path: /home/dhernando/caravel_analog_fulgor/xschem/inverter_cp_x2.sch
.subckt inverter_cp_x2  vdd out in vss
*.iopin vss
*.ipin in
*.opin out
*.iopin vdd
XM2 out in vdd vdd sky130_fd_pr__pfet_01v8 L=0.15 W=1.25 nf=1 ad='int((nf+1)/2) * W/nf * 0.29' as='int((nf+2)/2) * W/nf * 0.29'
+ pd='2*int((nf+1)/2) * (W/nf + 0.29)' ps='2*int((nf+2)/2) * (W/nf + 0.29)' nrd='0.29 / W' nrs='0.29 / W'
+ sa=0 sb=0 sd=0 mult=6 m=6 
XM1 out in vss vss sky130_fd_pr__nfet_01v8 L=0.15 W=1.25 nf=1 ad='int((nf+1)/2) * W/nf * 0.29' as='int((nf+2)/2) * W/nf * 0.29'
+ pd='2*int((nf+1)/2) * (W/nf + 0.29)' ps='2*int((nf+2)/2) * (W/nf + 0.29)' nrd='0.29 / W' nrs='0.29 / W'
+ sa=0 sb=0 sd=0 mult=6 m=6 
.ends


* expanding   symbol:  csvco_branch.sym # of pins=7
* sym_path: /home/dhernando/caravel_analog_fulgor/xschem/csvco_branch.sym
* sch_path: /home/dhernando/caravel_analog_fulgor/xschem/csvco_branch.sch
.subckt csvco_branch  vdd vbp in out vctrl vss D0
*.ipin vctrl
*.ipin vbp
*.iopin vdd
*.iopin vss
*.ipin in
*.opin out
*.ipin D0
XM1 vdd_inv vbp vdd vdd sky130_fd_pr__pfet_01v8 L=0.15 W=1.5 nf=1 ad='int((nf+1)/2) * W/nf * 0.29' as='int((nf+2)/2) * W/nf * 0.29'
+ pd='2*int((nf+1)/2) * (W/nf + 0.29)' ps='2*int((nf+2)/2) * (W/nf + 0.29)' nrd='0.29 / W' nrs='0.29 / W'
+ sa=0 sb=0 sd=0 mult=10 m=10 
XM2 vss_inv vctrl vss vss sky130_fd_pr__nfet_01v8 L=0.15 W=1.5 nf=1 ad='int((nf+1)/2) * W/nf * 0.29'
+ as='int((nf+2)/2) * W/nf * 0.29' pd='2*int((nf+1)/2) * (W/nf + 0.29)' ps='2*int((nf+2)/2) * (W/nf + 0.29)'
+ nrd='0.29 / W' nrs='0.29 / W' sa=0 sb=0 sd=0 mult=10 m=10 
XM4 out D0 net1 vss sky130_fd_pr__nfet_01v8 L=0.15 W=0.42 nf=1 ad='int((nf+1)/2) * W/nf * 0.29' as='int((nf+2)/2) * W/nf * 0.29'
+ pd='2*int((nf+1)/2) * (W/nf + 0.29)' ps='2*int((nf+2)/2) * (W/nf + 0.29)' nrd='0.29 / W' nrs='0.29 / W'
+ sa=0 sb=0 sd=0 mult=1 m=1 
x1 vdd_inv out in vss_inv vdd vss inverter_csvco
C1 net1 vss 5.78f m=1
.ends


* expanding   symbol:  inverter_min_x2.sym # of pins=4
* sym_path: /home/dhernando/caravel_analog_fulgor/xschem/inverter_min_x2.sym
* sch_path: /home/dhernando/caravel_analog_fulgor/xschem/inverter_min_x2.sch
.subckt inverter_min_x2  vdd out in vss
*.iopin vss
*.ipin in
*.opin out
*.iopin vdd
XM2 out in vdd vdd sky130_fd_pr__pfet_01v8 L=0.15 W=0.84 nf=1 ad='int((nf+1)/2) * W/nf * 0.29' as='int((nf+2)/2) * W/nf * 0.29'
+ pd='2*int((nf+1)/2) * (W/nf + 0.29)' ps='2*int((nf+2)/2) * (W/nf + 0.29)' nrd='0.29 / W' nrs='0.29 / W'
+ sa=0 sb=0 sd=0 mult=2 m=2 
XM1 out in vss vss sky130_fd_pr__nfet_01v8 L=0.15 W=0.42 nf=1 ad='int((nf+1)/2) * W/nf * 0.29' as='int((nf+2)/2) * W/nf * 0.29'
+ pd='2*int((nf+1)/2) * (W/nf + 0.29)' ps='2*int((nf+2)/2) * (W/nf + 0.29)' nrd='0.29 / W' nrs='0.29 / W'
+ sa=0 sb=0 sd=0 mult=2 m=2 
.ends


* expanding   symbol:  inverter_min_x4.sym # of pins=4
* sym_path: /home/dhernando/caravel_analog_fulgor/xschem/inverter_min_x4.sym
* sch_path: /home/dhernando/caravel_analog_fulgor/xschem/inverter_min_x4.sch
.subckt inverter_min_x4  vdd out in vss
*.iopin vss
*.ipin in
*.opin out
*.iopin vdd
XM2 out in vdd vdd sky130_fd_pr__pfet_01v8 L=0.15 W=0.84 nf=1 ad='int((nf+1)/2) * W/nf * 0.29' as='int((nf+2)/2) * W/nf * 0.29'
+ pd='2*int((nf+1)/2) * (W/nf + 0.29)' ps='2*int((nf+2)/2) * (W/nf + 0.29)' nrd='0.29 / W' nrs='0.29 / W'
+ sa=0 sb=0 sd=0 mult=4 m=4 
XM1 out in vss vss sky130_fd_pr__nfet_01v8 L=0.15 W=0.42 nf=1 ad='int((nf+1)/2) * W/nf * 0.29' as='int((nf+2)/2) * W/nf * 0.29'
+ pd='2*int((nf+1)/2) * (W/nf + 0.29)' ps='2*int((nf+2)/2) * (W/nf + 0.29)' nrd='0.29 / W' nrs='0.29 / W'
+ sa=0 sb=0 sd=0 mult=4 m=4 
.ends


* expanding   symbol:  DFlipFlop.sym # of pins=7
* sym_path: /home/dhernando/caravel_analog_fulgor/xschem/DFlipFlop.sym
* sch_path: /home/dhernando/caravel_analog_fulgor/xschem/DFlipFlop.sch
.subckt DFlipFlop  vdd Q nQ vss D CLK nCLK
*.iopin vdd
*.iopin vss
*.opin Q
*.opin nQ
*.ipin D
*.ipin CLK
*.ipin nCLK
x1 vdd D_d D nD_d vss clock_inverter
x2 vdd nA A D_d nD_d CLK vss latch_diff
x3 vdd nQ Q A nA nCLK vss latch_diff
.ends


* expanding   symbol:  clock_inverter.sym # of pins=5
* sym_path: /home/dhernando/caravel_analog_fulgor/xschem/clock_inverter.sym
* sch_path: /home/dhernando/caravel_analog_fulgor/xschem/clock_inverter.sch
.subckt clock_inverter  vdd CLK_d CLK nCLK_d vss
*.ipin CLK
*.iopin vdd
*.iopin vss
*.opin nCLK_d
*.opin CLK_d
x5 vdd nCLK_d net1 vss trans_gate
x1 vdd CLK_d net2 vss inverter_cp_x1
x2 vdd net2 CLK vss inverter_cp_x1
x3 vdd net1 CLK vss inverter_cp_x1
.ends


* expanding   symbol:  prescaler_23.sym # of pins=10
* sym_path: /home/dhernando/caravel_analog_fulgor/xschem/prescaler_23.sym
* sch_path: /home/dhernando/caravel_analog_fulgor/xschem/prescaler_23.sch
.subckt prescaler_23  vdd CLK_23 CLK nCLK vss MC Q1 nCLK_23 Q2 Q2_d
*.iopin vdd
*.ipin CLK
*.ipin nCLK
*.ipin MC
*.iopin vss
*.opin CLK_23
*.iopin nCLK_23
*.iopin Q1
*.iopin Q2
*.iopin Q2_d
x3 nCLK_23 1 vss vss vdd vdd 2 sky130_fd_sc_hs__and2_1