* NGSPICE file created from top_pll_v1.ext - technology: sky130A

.subckt sky130_fd_pr__cap_mim_m3_1_MACBVW VSUBS m3_n2650_n13200# m3_n7969_n2600# m3_7988_8000#
+ m3_2669_n7900# m3_n13288_n2600# m3_n2650_2700# m3_2669_2700# m3_n13288_n13200# m3_n7969_n13200#
+ m3_n13288_8000# m3_7988_2700# m3_n2650_n7900# m3_7988_n7900# m3_2669_n13200# m3_n7969_8000#
+ m3_n13288_2700# m3_n7969_n7900# m3_n13288_n7900# m3_2669_n2600# m3_n7969_2700# m3_7988_n13200#
+ c1_n13188_n13100# m3_7988_n2600# m3_n2650_n2600# m3_n2650_8000# m3_2669_8000#
X0 c1_n13188_n13100# m3_2669_n13200# sky130_fd_pr__cap_mim_m3_1 l=2.5e+07u w=2.5e+07u
X1 c1_n13188_n13100# m3_n2650_8000# sky130_fd_pr__cap_mim_m3_1 l=2.5e+07u w=2.5e+07u
X2 c1_n13188_n13100# m3_2669_n7900# sky130_fd_pr__cap_mim_m3_1 l=2.5e+07u w=2.5e+07u
X3 c1_n13188_n13100# m3_n13288_n13200# sky130_fd_pr__cap_mim_m3_1 l=2.5e+07u w=2.5e+07u
X4 c1_n13188_n13100# m3_n7969_2700# sky130_fd_pr__cap_mim_m3_1 l=2.5e+07u w=2.5e+07u
X5 c1_n13188_n13100# m3_n13288_8000# sky130_fd_pr__cap_mim_m3_1 l=2.5e+07u w=2.5e+07u
X6 c1_n13188_n13100# m3_2669_8000# sky130_fd_pr__cap_mim_m3_1 l=2.5e+07u w=2.5e+07u
X7 c1_n13188_n13100# m3_7988_2700# sky130_fd_pr__cap_mim_m3_1 l=2.5e+07u w=2.5e+07u
X8 c1_n13188_n13100# m3_2669_n2600# sky130_fd_pr__cap_mim_m3_1 l=2.5e+07u w=2.5e+07u
X9 c1_n13188_n13100# m3_7988_n13200# sky130_fd_pr__cap_mim_m3_1 l=2.5e+07u w=2.5e+07u
X10 c1_n13188_n13100# m3_n7969_8000# sky130_fd_pr__cap_mim_m3_1 l=2.5e+07u w=2.5e+07u
X11 c1_n13188_n13100# m3_7988_n7900# sky130_fd_pr__cap_mim_m3_1 l=2.5e+07u w=2.5e+07u
X12 c1_n13188_n13100# m3_n7969_n13200# sky130_fd_pr__cap_mim_m3_1 l=2.5e+07u w=2.5e+07u
X13 c1_n13188_n13100# m3_7988_8000# sky130_fd_pr__cap_mim_m3_1 l=2.5e+07u w=2.5e+07u
X14 c1_n13188_n13100# m3_n13288_n7900# sky130_fd_pr__cap_mim_m3_1 l=2.5e+07u w=2.5e+07u
X15 c1_n13188_n13100# m3_n7969_n7900# sky130_fd_pr__cap_mim_m3_1 l=2.5e+07u w=2.5e+07u
X16 c1_n13188_n13100# m3_n2650_n7900# sky130_fd_pr__cap_mim_m3_1 l=2.5e+07u w=2.5e+07u
X17 c1_n13188_n13100# m3_n2650_n13200# sky130_fd_pr__cap_mim_m3_1 l=2.5e+07u w=2.5e+07u
X18 c1_n13188_n13100# m3_n2650_2700# sky130_fd_pr__cap_mim_m3_1 l=2.5e+07u w=2.5e+07u
X19 c1_n13188_n13100# m3_7988_n2600# sky130_fd_pr__cap_mim_m3_1 l=2.5e+07u w=2.5e+07u
X20 c1_n13188_n13100# m3_n13288_2700# sky130_fd_pr__cap_mim_m3_1 l=2.5e+07u w=2.5e+07u
X21 c1_n13188_n13100# m3_n13288_n2600# sky130_fd_pr__cap_mim_m3_1 l=2.5e+07u w=2.5e+07u
X22 c1_n13188_n13100# m3_n7969_n2600# sky130_fd_pr__cap_mim_m3_1 l=2.5e+07u w=2.5e+07u
X23 c1_n13188_n13100# m3_n2650_n2600# sky130_fd_pr__cap_mim_m3_1 l=2.5e+07u w=2.5e+07u
X24 c1_n13188_n13100# m3_2669_2700# sky130_fd_pr__cap_mim_m3_1 l=2.5e+07u w=2.5e+07u
C0 m3_n2650_2700# m3_n2650_8000# 3.28fF
C1 m3_n13288_2700# c1_n13188_n13100# 58.61fF
C2 m3_7988_n2600# m3_2669_n2600# 2.73fF
C3 c1_n13188_n13100# m3_n2650_n13200# 58.61fF
C4 m3_2669_n7900# m3_2669_n2600# 3.28fF
C5 m3_n7969_n13200# m3_n13288_n13200# 2.73fF
C6 m3_n2650_n7900# m3_2669_n7900# 2.73fF
C7 m3_n7969_n13200# c1_n13188_n13100# 58.61fF
C8 m3_n13288_n2600# m3_n13288_2700# 3.28fF
C9 m3_2669_2700# m3_2669_8000# 3.28fF
C10 m3_n13288_8000# m3_n7969_8000# 2.73fF
C11 c1_n13188_n13100# m3_n7969_n2600# 58.86fF
C12 c1_n13188_n13100# m3_n2650_n2600# 58.86fF
C13 m3_n13288_2700# m3_n7969_2700# 2.73fF
C14 m3_2669_8000# m3_n2650_8000# 2.73fF
C15 m3_n2650_2700# m3_n2650_n2600# 3.28fF
C16 m3_7988_8000# m3_7988_2700# 3.39fF
C17 m3_2669_n13200# m3_2669_n7900# 3.28fF
C18 m3_7988_2700# m3_7988_n2600# 3.39fF
C19 m3_2669_2700# m3_2669_n2600# 3.28fF
C20 m3_n7969_n7900# m3_n2650_n7900# 2.73fF
C21 m3_n13288_n2600# m3_n7969_n2600# 2.73fF
C22 m3_n7969_8000# m3_n2650_8000# 2.73fF
C23 m3_n7969_n7900# m3_n13288_n7900# 2.73fF
C24 m3_n7969_2700# m3_n7969_n2600# 3.28fF
C25 m3_7988_n13200# c1_n13188_n13100# 60.75fF
C26 c1_n13188_n13100# m3_n13288_n13200# 58.36fF
C27 m3_n13288_2700# m3_n13288_8000# 3.28fF
C28 c1_n13188_n13100# m3_n2650_2700# 58.86fF
C29 m3_n2650_n7900# m3_n2650_n13200# 3.28fF
C30 m3_7988_n7900# m3_7988_n13200# 3.39fF
C31 m3_2669_2700# m3_7988_2700# 2.73fF
C32 m3_2669_n2600# m3_n2650_n2600# 2.73fF
C33 m3_7988_n7900# c1_n13188_n13100# 61.01fF
C34 m3_n13288_n2600# c1_n13188_n13100# 58.61fF
C35 m3_n2650_n7900# m3_n2650_n2600# 3.28fF
C36 m3_2669_n13200# m3_n2650_n13200# 2.73fF
C37 m3_n7969_2700# c1_n13188_n13100# 58.86fF
C38 m3_n7969_2700# m3_n2650_2700# 2.73fF
C39 m3_n7969_n7900# m3_n7969_n13200# 3.28fF
C40 c1_n13188_n13100# m3_2669_8000# 58.61fF
C41 m3_n7969_n7900# m3_n7969_n2600# 3.28fF
C42 m3_7988_8000# c1_n13188_n13100# 60.75fF
C43 m3_7988_n2600# c1_n13188_n13100# 61.01fF
C44 m3_2669_n2600# c1_n13188_n13100# 58.86fF
C45 c1_n13188_n13100# m3_n7969_8000# 58.61fF
C46 m3_2669_n7900# c1_n13188_n13100# 58.86fF
C47 m3_n2650_n7900# c1_n13188_n13100# 58.86fF
C48 m3_n13288_n7900# m3_n13288_n13200# 3.28fF
C49 m3_n7969_n13200# m3_n2650_n13200# 2.73fF
C50 m3_n13288_8000# c1_n13188_n13100# 58.36fF
C51 m3_7988_n7900# m3_7988_n2600# 3.39fF
C52 m3_n13288_n7900# c1_n13188_n13100# 58.61fF
C53 m3_2669_n13200# m3_7988_n13200# 2.73fF
C54 m3_7988_n7900# m3_2669_n7900# 2.73fF
C55 m3_2669_n13200# c1_n13188_n13100# 58.61fF
C56 m3_n7969_n7900# c1_n13188_n13100# 58.86fF
C57 m3_7988_8000# m3_2669_8000# 2.73fF
C58 m3_n7969_2700# m3_n7969_8000# 3.28fF
C59 m3_2669_2700# c1_n13188_n13100# 58.86fF
C60 m3_n2650_n2600# m3_n7969_n2600# 2.73fF
C61 m3_2669_2700# m3_n2650_2700# 2.73fF
C62 c1_n13188_n13100# m3_n2650_8000# 58.61fF
C63 m3_n13288_n2600# m3_n13288_n7900# 3.28fF
C64 m3_7988_2700# c1_n13188_n13100# 61.01fF
C65 c1_n13188_n13100# VSUBS 2.51fF
C66 m3_7988_n13200# VSUBS 12.57fF
C67 m3_2669_n13200# VSUBS 12.37fF
C68 m3_n2650_n13200# VSUBS 12.37fF
C69 m3_n7969_n13200# VSUBS 12.37fF
C70 m3_n13288_n13200# VSUBS 12.37fF
C71 m3_7988_n7900# VSUBS 12.57fF
C72 m3_2669_n7900# VSUBS 12.37fF
C73 m3_n2650_n7900# VSUBS 12.37fF
C74 m3_n7969_n7900# VSUBS 12.37fF
C75 m3_n13288_n7900# VSUBS 12.37fF
C76 m3_7988_n2600# VSUBS 12.57fF
C77 m3_2669_n2600# VSUBS 12.37fF
C78 m3_n2650_n2600# VSUBS 12.37fF
C79 m3_n7969_n2600# VSUBS 12.37fF
C80 m3_n13288_n2600# VSUBS 12.37fF
C81 m3_7988_2700# VSUBS 12.57fF
C82 m3_2669_2700# VSUBS 12.37fF
C83 m3_n2650_2700# VSUBS 12.37fF
C84 m3_n7969_2700# VSUBS 12.37fF
C85 m3_n13288_2700# VSUBS 12.37fF
C86 m3_7988_8000# VSUBS 12.57fF
C87 m3_2669_8000# VSUBS 12.37fF
C88 m3_n2650_8000# VSUBS 12.37fF
C89 m3_n7969_8000# VSUBS 12.37fF
C90 m3_n13288_8000# VSUBS 12.37fF
.ends

.subckt cap1_loop_filter VSUBS in out
Xsky130_fd_pr__cap_mim_m3_1_MACBVW_0 VSUBS out out out out out out out out out out
+ out out out out out out out out out out out in out out out out sky130_fd_pr__cap_mim_m3_1_MACBVW
C0 out in 2.17fF
C1 in VSUBS -10.03fF
C2 out VSUBS 62.40fF
.ends

.subckt sky130_fd_pr__cap_mim_m3_1_W3JTNJ VSUBS m3_n6469_n2100# c1_n6369_n6300# m3_2169_n6400#
+ m3_n2150_n6400# c1_2269_n6300# m3_n6469_2200# m3_n2150_n2100# c1_n2050_n6300# m3_n2150_2200#
+ m3_n6469_n6400#
X0 c1_2269_n6300# m3_2169_n6400# sky130_fd_pr__cap_mim_m3_1 l=2e+07u w=2e+07u
X1 c1_2269_n6300# m3_2169_n6400# sky130_fd_pr__cap_mim_m3_1 l=2e+07u w=2e+07u
X2 c1_n2050_n6300# m3_n2150_2200# sky130_fd_pr__cap_mim_m3_1 l=2e+07u w=2e+07u
X3 c1_n6369_n6300# m3_n6469_n2100# sky130_fd_pr__cap_mim_m3_1 l=2e+07u w=2e+07u
X4 c1_2269_n6300# m3_2169_n6400# sky130_fd_pr__cap_mim_m3_1 l=2e+07u w=2e+07u
X5 c1_n6369_n6300# m3_n6469_n6400# sky130_fd_pr__cap_mim_m3_1 l=2e+07u w=2e+07u
X6 c1_n2050_n6300# m3_n2150_n2100# sky130_fd_pr__cap_mim_m3_1 l=2e+07u w=2e+07u
X7 c1_n2050_n6300# m3_n2150_n6400# sky130_fd_pr__cap_mim_m3_1 l=2e+07u w=2e+07u
X8 c1_n6369_n6300# m3_n6469_2200# sky130_fd_pr__cap_mim_m3_1 l=2e+07u w=2e+07u
C0 m3_n6469_2200# m3_n6469_n2100# 2.63fF
C1 c1_n2050_n6300# m3_n2150_n6400# 38.10fF
C2 c1_n2050_n6300# m3_n2150_n2100# 38.10fF
C3 c1_n2050_n6300# c1_2269_n6300# 1.99fF
C4 m3_2169_n6400# m3_n2150_n6400# 1.75fF
C5 m3_n2150_2200# m3_n2150_n2100# 2.63fF
C6 m3_2169_n6400# m3_n2150_n2100# 1.75fF
C7 m3_n6469_n6400# m3_n6469_n2100# 2.63fF
C8 m3_2169_n6400# c1_2269_n6300# 121.67fF
C9 c1_n6369_n6300# c1_n2050_n6300# 1.99fF
C10 c1_n2050_n6300# m3_n2150_2200# 38.10fF
C11 m3_n6469_n6400# m3_n2150_n6400# 1.75fF
C12 c1_n6369_n6300# m3_n6469_2200# 38.10fF
C13 m3_2169_n6400# m3_n2150_2200# 1.75fF
C14 m3_n6469_2200# m3_n2150_2200# 1.75fF
C15 c1_n6369_n6300# m3_n6469_n6400# 38.10fF
C16 m3_n6469_n2100# m3_n2150_n2100# 1.75fF
C17 m3_n2150_n6400# m3_n2150_n2100# 2.63fF
C18 c1_n6369_n6300# m3_n6469_n2100# 38.10fF
C19 c1_2269_n6300# VSUBS 0.16fF
C20 c1_n2050_n6300# VSUBS 0.16fF
C21 c1_n6369_n6300# VSUBS 0.16fF
C22 m3_n2150_n6400# VSUBS 8.68fF
C23 m3_n6469_n6400# VSUBS 8.68fF
C24 m3_n2150_n2100# VSUBS 8.68fF
C25 m3_n6469_n2100# VSUBS 8.68fF
C26 m3_2169_n6400# VSUBS 26.86fF
C27 m3_n2150_2200# VSUBS 8.68fF
C28 m3_n6469_2200# VSUBS 8.68fF
.ends

.subckt cap2_loop_filter VSUBS in out
Xsky130_fd_pr__cap_mim_m3_1_W3JTNJ_0 VSUBS out in out out in out out in out out sky130_fd_pr__cap_mim_m3_1_W3JTNJ
C0 out in 8.08fF
C1 in VSUBS -16.59fF
C2 out VSUBS 13.00fF
.ends

.subckt sky130_fd_pr__res_high_po_5p73_X44RQA a_n573_2292# w_n739_n2890# a_n573_n2724#
X0 a_n573_n2724# a_n573_2292# w_n739_n2890# sky130_fd_pr__res_high_po_5p73 l=2.292e+07u
C0 a_n573_n2724# w_n739_n2890# 1.98fF
C1 a_n573_2292# w_n739_n2890# 1.98fF
.ends

.subckt res_loop_filter vss out in
Xsky130_fd_pr__res_high_po_5p73_X44RQA_0 in vss out sky130_fd_pr__res_high_po_5p73_X44RQA
C0 out vss 3.87fF
C1 in vss 3.02fF
.ends

.subckt loop_filter vc_pex in vss
Xcap1_loop_filter_0 vss vc_pex vss cap1_loop_filter
Xcap2_loop_filter_0 vss in vss cap2_loop_filter
Xres_loop_filter_0 vss res_loop_filter_2/out in res_loop_filter
Xres_loop_filter_1 vss res_loop_filter_2/out vc_pex res_loop_filter
Xres_loop_filter_2 vss res_loop_filter_2/out vc_pex res_loop_filter
C0 in vc_pex 0.18fF
C1 vc_pex vss -38.13fF
C2 res_loop_filter_2/out vss 8.49fF
C3 in vss -18.79fF
.ends

.subckt sky130_fd_pr__pfet_01v8_4ML9WA VSUBS a_429_n486# w_n2457_n634# a_887_n486#
+ a_n29_n486# a_1345_n486# a_n2261_n512# a_1803_n486# a_n487_n486# a_n945_n486# a_n2319_n486#
+ a_n1403_n486# a_2261_n486# a_n1861_n486#
X0 a_2261_n486# a_n2261_n512# a_1803_n486# w_n2457_n634# sky130_fd_pr__pfet_01v8 ad=0p pd=0u as=0p ps=0u w=4.5e+06u l=2e+06u
X1 a_n945_n486# a_n2261_n512# a_n1403_n486# w_n2457_n634# sky130_fd_pr__pfet_01v8 ad=0p pd=0u as=0p ps=0u w=4.5e+06u l=2e+06u
X2 a_429_n486# a_n2261_n512# a_n29_n486# w_n2457_n634# sky130_fd_pr__pfet_01v8 ad=0p pd=0u as=0p ps=0u w=4.5e+06u l=2e+06u
X3 a_1803_n486# a_n2261_n512# a_1345_n486# w_n2457_n634# sky130_fd_pr__pfet_01v8 ad=0p pd=0u as=0p ps=0u w=4.5e+06u l=2e+06u
X4 a_887_n486# a_n2261_n512# a_429_n486# w_n2457_n634# sky130_fd_pr__pfet_01v8 ad=0p pd=0u as=0p ps=0u w=4.5e+06u l=2e+06u
X5 a_n487_n486# a_n2261_n512# a_n945_n486# w_n2457_n634# sky130_fd_pr__pfet_01v8 ad=0p pd=0u as=0p ps=0u w=4.5e+06u l=2e+06u
X6 a_n1403_n486# a_n2261_n512# a_n1861_n486# w_n2457_n634# sky130_fd_pr__pfet_01v8 ad=0p pd=0u as=0p ps=0u w=4.5e+06u l=2e+06u
X7 a_n1861_n486# a_n2261_n512# a_n2319_n486# w_n2457_n634# sky130_fd_pr__pfet_01v8 ad=0p pd=0u as=0p ps=0u w=4.5e+06u l=2e+06u
X8 a_n29_n486# a_n2261_n512# a_n487_n486# w_n2457_n634# sky130_fd_pr__pfet_01v8 ad=0p pd=0u as=0p ps=0u w=4.5e+06u l=2e+06u
X9 a_1345_n486# a_n2261_n512# a_887_n486# w_n2457_n634# sky130_fd_pr__pfet_01v8 ad=0p pd=0u as=0p ps=0u w=4.5e+06u l=2e+06u
C0 a_2261_n486# w_n2457_n634# 0.02fF
C1 a_429_n486# w_n2457_n634# 0.02fF
C2 w_n2457_n634# a_n2319_n486# 0.02fF
C3 a_n945_n486# w_n2457_n634# 0.02fF
C4 w_n2457_n634# a_n1403_n486# 0.02fF
C5 a_n29_n486# w_n2457_n634# 0.02fF
C6 a_887_n486# w_n2457_n634# 0.02fF
C7 a_n1861_n486# w_n2457_n634# 0.02fF
C8 a_n487_n486# w_n2457_n634# 0.02fF
C9 w_n2457_n634# a_1803_n486# 0.02fF
C10 a_1345_n486# w_n2457_n634# 0.02fF
C11 a_2261_n486# VSUBS 0.03fF
C12 a_1803_n486# VSUBS 0.03fF
C13 a_1345_n486# VSUBS 0.03fF
C14 a_887_n486# VSUBS 0.03fF
C15 a_429_n486# VSUBS 0.03fF
C16 a_n29_n486# VSUBS 0.03fF
C17 a_n487_n486# VSUBS 0.03fF
C18 a_n945_n486# VSUBS 0.03fF
C19 a_n1403_n486# VSUBS 0.03fF
C20 a_n1861_n486# VSUBS 0.03fF
C21 a_n2319_n486# VSUBS 0.03fF
C22 a_n2261_n512# VSUBS 4.27fF
C23 w_n2457_n634# VSUBS 21.34fF
.ends

.subckt sky130_fd_pr__nfet_01v8_YCGG98 a_n1041_n75# a_n561_n75# a_1167_n75# a_303_n75#
+ a_687_n75# a_n849_n75# a_n369_n75# a_975_n75# a_111_n75# a_495_n75# a_n1137_n75#
+ a_n657_n75# a_n177_n75# a_783_n75# a_n945_n75# a_n465_n75# a_207_n75# a_1071_n75#
+ a_591_n75# a_15_n75# a_n753_n75# w_n1367_n285# a_n273_n75# a_879_n75# a_399_n75#
+ a_n1229_n75# a_n81_n75# a_n1167_n101#
X0 a_207_n75# a_n1167_n101# a_111_n75# w_n1367_n285# sky130_fd_pr__nfet_01v8 ad=0p pd=0u as=0p ps=0u w=750000u l=150000u
X1 a_303_n75# a_n1167_n101# a_207_n75# w_n1367_n285# sky130_fd_pr__nfet_01v8 ad=0p pd=0u as=0p ps=0u w=750000u l=150000u
X2 a_399_n75# a_n1167_n101# a_303_n75# w_n1367_n285# sky130_fd_pr__nfet_01v8 ad=0p pd=0u as=0p ps=0u w=750000u l=150000u
X3 a_495_n75# a_n1167_n101# a_399_n75# w_n1367_n285# sky130_fd_pr__nfet_01v8 ad=0p pd=0u as=0p ps=0u w=750000u l=150000u
X4 a_591_n75# a_n1167_n101# a_495_n75# w_n1367_n285# sky130_fd_pr__nfet_01v8 ad=0p pd=0u as=0p ps=0u w=750000u l=150000u
X5 a_783_n75# a_n1167_n101# a_687_n75# w_n1367_n285# sky130_fd_pr__nfet_01v8 ad=0p pd=0u as=0p ps=0u w=750000u l=150000u
X6 a_687_n75# a_n1167_n101# a_591_n75# w_n1367_n285# sky130_fd_pr__nfet_01v8 ad=0p pd=0u as=0p ps=0u w=750000u l=150000u
X7 a_879_n75# a_n1167_n101# a_783_n75# w_n1367_n285# sky130_fd_pr__nfet_01v8 ad=0p pd=0u as=0p ps=0u w=750000u l=150000u
X8 a_975_n75# a_n1167_n101# a_879_n75# w_n1367_n285# sky130_fd_pr__nfet_01v8 ad=0p pd=0u as=0p ps=0u w=750000u l=150000u
X9 a_n1041_n75# a_n1167_n101# a_n1137_n75# w_n1367_n285# sky130_fd_pr__nfet_01v8 ad=0p pd=0u as=0p ps=0u w=750000u l=150000u
X10 a_n1137_n75# a_n1167_n101# a_n1229_n75# w_n1367_n285# sky130_fd_pr__nfet_01v8 ad=0p pd=0u as=0p ps=0u w=750000u l=150000u
X11 a_n561_n75# a_n1167_n101# a_n657_n75# w_n1367_n285# sky130_fd_pr__nfet_01v8 ad=0p pd=0u as=0p ps=0u w=750000u l=150000u
X12 a_1071_n75# a_n1167_n101# a_975_n75# w_n1367_n285# sky130_fd_pr__nfet_01v8 ad=0p pd=0u as=0p ps=0u w=750000u l=150000u
X13 a_n945_n75# a_n1167_n101# a_n1041_n75# w_n1367_n285# sky130_fd_pr__nfet_01v8 ad=0p pd=0u as=0p ps=0u w=750000u l=150000u
X14 a_n753_n75# a_n1167_n101# a_n849_n75# w_n1367_n285# sky130_fd_pr__nfet_01v8 ad=0p pd=0u as=0p ps=0u w=750000u l=150000u
X15 a_n657_n75# a_n1167_n101# a_n753_n75# w_n1367_n285# sky130_fd_pr__nfet_01v8 ad=0p pd=0u as=0p ps=0u w=750000u l=150000u
X16 a_n465_n75# a_n1167_n101# a_n561_n75# w_n1367_n285# sky130_fd_pr__nfet_01v8 ad=0p pd=0u as=0p ps=0u w=750000u l=150000u
X17 a_n369_n75# a_n1167_n101# a_n465_n75# w_n1367_n285# sky130_fd_pr__nfet_01v8 ad=0p pd=0u as=0p ps=0u w=750000u l=150000u
X18 a_1167_n75# a_n1167_n101# a_1071_n75# w_n1367_n285# sky130_fd_pr__nfet_01v8 ad=0p pd=0u as=0p ps=0u w=750000u l=150000u
X19 a_n849_n75# a_n1167_n101# a_n945_n75# w_n1367_n285# sky130_fd_pr__nfet_01v8 ad=0p pd=0u as=0p ps=0u w=750000u l=150000u
X20 a_15_n75# a_n1167_n101# a_n81_n75# w_n1367_n285# sky130_fd_pr__nfet_01v8 ad=0p pd=0u as=0p ps=0u w=750000u l=150000u
X21 a_n81_n75# a_n1167_n101# a_n177_n75# w_n1367_n285# sky130_fd_pr__nfet_01v8 ad=0p pd=0u as=0p ps=0u w=750000u l=150000u
X22 a_111_n75# a_n1167_n101# a_15_n75# w_n1367_n285# sky130_fd_pr__nfet_01v8 ad=0p pd=0u as=0p ps=0u w=750000u l=150000u
X23 a_n273_n75# a_n1167_n101# a_n369_n75# w_n1367_n285# sky130_fd_pr__nfet_01v8 ad=0p pd=0u as=0p ps=0u w=750000u l=150000u
X24 a_n177_n75# a_n1167_n101# a_n273_n75# w_n1367_n285# sky130_fd_pr__nfet_01v8 ad=0p pd=0u as=0p ps=0u w=750000u l=150000u
C0 a_111_n75# a_n81_n75# 0.08fF
C1 a_111_n75# a_n273_n75# 0.03fF
C2 a_n945_n75# a_n1041_n75# 0.22fF
C3 a_783_n75# a_1167_n75# 0.03fF
C4 a_1071_n75# a_879_n75# 0.08fF
C5 a_n753_n75# a_n657_n75# 0.22fF
C6 a_111_n75# a_n177_n75# 0.05fF
C7 a_n945_n75# a_n1137_n75# 0.08fF
C8 a_1071_n75# a_687_n75# 0.03fF
C9 a_n81_n75# a_n273_n75# 0.08fF
C10 a_879_n75# a_591_n75# 0.05fF
C11 a_n369_n75# a_n81_n75# 0.05fF
C12 a_879_n75# a_495_n75# 0.03fF
C13 a_n369_n75# a_n273_n75# 0.22fF
C14 a_1071_n75# a_975_n75# 0.22fF
C15 a_687_n75# a_591_n75# 0.22fF
C16 a_303_n75# a_687_n75# 0.03fF
C17 a_495_n75# a_687_n75# 0.08fF
C18 a_n177_n75# a_n81_n75# 0.22fF
C19 a_n849_n75# a_n657_n75# 0.08fF
C20 a_n177_n75# a_n273_n75# 0.22fF
C21 a_n369_n75# a_n177_n75# 0.08fF
C22 a_n1229_n75# a_n849_n75# 0.03fF
C23 a_975_n75# a_591_n75# 0.03fF
C24 a_n657_n75# a_n561_n75# 0.22fF
C25 a_111_n75# a_303_n75# 0.08fF
C26 a_111_n75# a_495_n75# 0.03fF
C27 a_879_n75# a_1167_n75# 0.05fF
C28 a_n465_n75# a_n81_n75# 0.03fF
C29 a_399_n75# a_591_n75# 0.08fF
C30 a_399_n75# a_303_n75# 0.22fF
C31 a_n465_n75# a_n273_n75# 0.08fF
C32 a_n465_n75# a_n369_n75# 0.22fF
C33 a_399_n75# a_495_n75# 0.22fF
C34 a_n753_n75# a_n1041_n75# 0.05fF
C35 a_303_n75# a_n81_n75# 0.03fF
C36 a_n753_n75# a_n1137_n75# 0.03fF
C37 a_975_n75# a_1167_n75# 0.08fF
C38 a_n465_n75# a_n177_n75# 0.05fF
C39 a_n753_n75# a_n369_n75# 0.03fF
C40 a_n849_n75# a_n1041_n75# 0.08fF
C41 a_n945_n75# a_n753_n75# 0.08fF
C42 a_111_n75# a_15_n75# 0.22fF
C43 a_111_n75# a_207_n75# 0.22fF
C44 a_n1137_n75# a_n849_n75# 0.05fF
C45 a_399_n75# a_15_n75# 0.03fF
C46 a_399_n75# a_207_n75# 0.08fF
C47 a_879_n75# a_783_n75# 0.22fF
C48 a_15_n75# a_n81_n75# 0.22fF
C49 a_n81_n75# a_207_n75# 0.05fF
C50 a_n465_n75# a_n753_n75# 0.05fF
C51 a_15_n75# a_n273_n75# 0.05fF
C52 a_n945_n75# a_n849_n75# 0.22fF
C53 a_15_n75# a_n369_n75# 0.03fF
C54 a_303_n75# a_591_n75# 0.05fF
C55 a_495_n75# a_591_n75# 0.22fF
C56 a_303_n75# a_495_n75# 0.08fF
C57 a_783_n75# a_687_n75# 0.22fF
C58 a_n273_n75# a_n561_n75# 0.05fF
C59 a_n369_n75# a_n561_n75# 0.08fF
C60 a_n945_n75# a_n561_n75# 0.03fF
C61 a_783_n75# a_975_n75# 0.08fF
C62 a_15_n75# a_n177_n75# 0.08fF
C63 a_1071_n75# a_1167_n75# 0.22fF
C64 a_n177_n75# a_207_n75# 0.03fF
C65 a_n177_n75# a_n561_n75# 0.03fF
C66 a_n465_n75# a_n849_n75# 0.03fF
C67 a_399_n75# a_783_n75# 0.03fF
C68 a_n465_n75# a_n561_n75# 0.22fF
C69 a_n657_n75# a_n1041_n75# 0.03fF
C70 a_n1229_n75# a_n1041_n75# 0.08fF
C71 a_879_n75# a_687_n75# 0.08fF
C72 a_15_n75# a_303_n75# 0.05fF
C73 a_591_n75# a_207_n75# 0.03fF
C74 a_303_n75# a_207_n75# 0.22fF
C75 a_495_n75# a_207_n75# 0.05fF
C76 a_n1229_n75# a_n1137_n75# 0.22fF
C77 a_n753_n75# a_n849_n75# 0.22fF
C78 a_879_n75# a_975_n75# 0.22fF
C79 a_n273_n75# a_n657_n75# 0.03fF
C80 a_n369_n75# a_n657_n75# 0.05fF
C81 a_n753_n75# a_n561_n75# 0.08fF
C82 a_n945_n75# a_n657_n75# 0.05fF
C83 a_687_n75# a_975_n75# 0.05fF
C84 a_n945_n75# a_n1229_n75# 0.05fF
C85 a_1071_n75# a_783_n75# 0.05fF
C86 a_399_n75# a_687_n75# 0.05fF
C87 a_783_n75# a_591_n75# 0.08fF
C88 a_783_n75# a_495_n75# 0.05fF
C89 a_n849_n75# a_n561_n75# 0.05fF
C90 a_n465_n75# a_n657_n75# 0.08fF
C91 a_15_n75# a_207_n75# 0.08fF
C92 a_399_n75# a_111_n75# 0.05fF
C93 a_n1137_n75# a_n1041_n75# 0.22fF
C94 a_1167_n75# w_n1367_n285# 0.10fF
C95 a_1071_n75# w_n1367_n285# 0.07fF
C96 a_975_n75# w_n1367_n285# 0.06fF
C97 a_879_n75# w_n1367_n285# 0.05fF
C98 a_783_n75# w_n1367_n285# 0.04fF
C99 a_687_n75# w_n1367_n285# 0.04fF
C100 a_591_n75# w_n1367_n285# 0.04fF
C101 a_495_n75# w_n1367_n285# 0.04fF
C102 a_399_n75# w_n1367_n285# 0.04fF
C103 a_303_n75# w_n1367_n285# 0.04fF
C104 a_207_n75# w_n1367_n285# 0.04fF
C105 a_111_n75# w_n1367_n285# 0.04fF
C106 a_15_n75# w_n1367_n285# 0.04fF
C107 a_n81_n75# w_n1367_n285# 0.04fF
C108 a_n177_n75# w_n1367_n285# 0.04fF
C109 a_n273_n75# w_n1367_n285# 0.04fF
C110 a_n369_n75# w_n1367_n285# 0.04fF
C111 a_n465_n75# w_n1367_n285# 0.04fF
C112 a_n561_n75# w_n1367_n285# 0.04fF
C113 a_n657_n75# w_n1367_n285# 0.04fF
C114 a_n753_n75# w_n1367_n285# 0.04fF
C115 a_n849_n75# w_n1367_n285# 0.04fF
C116 a_n945_n75# w_n1367_n285# 0.04fF
C117 a_n1041_n75# w_n1367_n285# 0.04fF
C118 a_n1137_n75# w_n1367_n285# 0.04fF
C119 a_n1229_n75# w_n1367_n285# 0.04fF
C120 a_n1167_n101# w_n1367_n285# 2.55fF
.ends

.subckt sky130_fd_pr__nfet_01v8_MUHGM9 a_33_n101# a_n129_n75# a_735_n75# a_255_n75#
+ a_n417_n75# a_n989_n75# a_63_n75# a_543_n75# a_n705_n75# a_n225_n75# a_n33_n75#
+ a_831_n75# a_351_n75# a_n927_n101# a_n513_n75# a_n897_n75# w_n1127_n285# a_639_n75#
+ a_159_n75# a_n801_n75# a_n321_n75# a_927_n75# a_447_n75# a_n609_n75#
X0 a_63_n75# a_33_n101# a_n33_n75# w_n1127_n285# sky130_fd_pr__nfet_01v8 ad=0p pd=0u as=0p ps=0u w=750000u l=150000u
X1 a_927_n75# a_33_n101# a_831_n75# w_n1127_n285# sky130_fd_pr__nfet_01v8 ad=0p pd=0u as=0p ps=0u w=750000u l=150000u
X2 a_n33_n75# a_n927_n101# a_n129_n75# w_n1127_n285# sky130_fd_pr__nfet_01v8 ad=0p pd=0u as=0p ps=0u w=750000u l=150000u
X3 a_159_n75# a_33_n101# a_63_n75# w_n1127_n285# sky130_fd_pr__nfet_01v8 ad=0p pd=0u as=0p ps=0u w=750000u l=150000u
X4 a_255_n75# a_33_n101# a_159_n75# w_n1127_n285# sky130_fd_pr__nfet_01v8 ad=0p pd=0u as=0p ps=0u w=750000u l=150000u
X5 a_351_n75# a_33_n101# a_255_n75# w_n1127_n285# sky130_fd_pr__nfet_01v8 ad=0p pd=0u as=0p ps=0u w=750000u l=150000u
X6 a_447_n75# a_33_n101# a_351_n75# w_n1127_n285# sky130_fd_pr__nfet_01v8 ad=0p pd=0u as=0p ps=0u w=750000u l=150000u
X7 a_543_n75# a_33_n101# a_447_n75# w_n1127_n285# sky130_fd_pr__nfet_01v8 ad=0p pd=0u as=0p ps=0u w=750000u l=150000u
X8 a_735_n75# a_33_n101# a_639_n75# w_n1127_n285# sky130_fd_pr__nfet_01v8 ad=0p pd=0u as=0p ps=0u w=750000u l=150000u
X9 a_831_n75# a_33_n101# a_735_n75# w_n1127_n285# sky130_fd_pr__nfet_01v8 ad=0p pd=0u as=0p ps=0u w=750000u l=150000u
X10 a_639_n75# a_33_n101# a_543_n75# w_n1127_n285# sky130_fd_pr__nfet_01v8 ad=0p pd=0u as=0p ps=0u w=750000u l=150000u
X11 a_n321_n75# a_n927_n101# a_n417_n75# w_n1127_n285# sky130_fd_pr__nfet_01v8 ad=0p pd=0u as=0p ps=0u w=750000u l=150000u
X12 a_n801_n75# a_n927_n101# a_n897_n75# w_n1127_n285# sky130_fd_pr__nfet_01v8 ad=0p pd=0u as=0p ps=0u w=750000u l=150000u
X13 a_n705_n75# a_n927_n101# a_n801_n75# w_n1127_n285# sky130_fd_pr__nfet_01v8 ad=0p pd=0u as=0p ps=0u w=750000u l=150000u
X14 a_n513_n75# a_n927_n101# a_n609_n75# w_n1127_n285# sky130_fd_pr__nfet_01v8 ad=0p pd=0u as=0p ps=0u w=750000u l=150000u
X15 a_n417_n75# a_n927_n101# a_n513_n75# w_n1127_n285# sky130_fd_pr__nfet_01v8 ad=0p pd=0u as=0p ps=0u w=750000u l=150000u
X16 a_n225_n75# a_n927_n101# a_n321_n75# w_n1127_n285# sky130_fd_pr__nfet_01v8 ad=0p pd=0u as=0p ps=0u w=750000u l=150000u
X17 a_n129_n75# a_n927_n101# a_n225_n75# w_n1127_n285# sky130_fd_pr__nfet_01v8 ad=0p pd=0u as=0p ps=0u w=750000u l=150000u
X18 a_n897_n75# a_n927_n101# a_n989_n75# w_n1127_n285# sky130_fd_pr__nfet_01v8 ad=0p pd=0u as=0p ps=0u w=750000u l=150000u
X19 a_n609_n75# a_n927_n101# a_n705_n75# w_n1127_n285# sky130_fd_pr__nfet_01v8 ad=0p pd=0u as=0p ps=0u w=750000u l=150000u
C0 a_351_n75# a_63_n75# 0.05fF
C1 a_n33_n75# a_351_n75# 0.03fF
C2 a_n129_n75# a_159_n75# 0.05fF
C3 a_255_n75# a_351_n75# 0.22fF
C4 a_n989_n75# a_n801_n75# 0.08fF
C5 a_n897_n75# a_n705_n75# 0.08fF
C6 a_n989_n75# a_n609_n75# 0.03fF
C7 a_639_n75# a_735_n75# 0.22fF
C8 a_n225_n75# a_n609_n75# 0.03fF
C9 a_n513_n75# a_n705_n75# 0.08fF
C10 a_n705_n75# a_n321_n75# 0.03fF
C11 a_831_n75# a_735_n75# 0.22fF
C12 a_639_n75# a_831_n75# 0.08fF
C13 a_351_n75# a_447_n75# 0.22fF
C14 a_n417_n75# a_n225_n75# 0.08fF
C15 a_n417_n75# a_n33_n75# 0.03fF
C16 a_n801_n75# a_n897_n75# 0.22fF
C17 a_543_n75# a_159_n75# 0.03fF
C18 a_n129_n75# a_63_n75# 0.08fF
C19 a_543_n75# a_735_n75# 0.08fF
C20 a_n129_n75# a_n225_n75# 0.22fF
C21 a_n129_n75# a_n33_n75# 0.22fF
C22 a_543_n75# a_639_n75# 0.22fF
C23 a_n609_n75# a_n897_n75# 0.05fF
C24 a_159_n75# a_63_n75# 0.22fF
C25 a_n225_n75# a_159_n75# 0.03fF
C26 a_n129_n75# a_255_n75# 0.03fF
C27 a_n33_n75# a_159_n75# 0.08fF
C28 a_n801_n75# a_n513_n75# 0.05fF
C29 a_543_n75# a_831_n75# 0.05fF
C30 a_n513_n75# a_n609_n75# 0.22fF
C31 a_255_n75# a_159_n75# 0.22fF
C32 a_n609_n75# a_n321_n75# 0.05fF
C33 a_255_n75# a_639_n75# 0.03fF
C34 a_n417_n75# a_n513_n75# 0.22fF
C35 a_n417_n75# a_n321_n75# 0.22fF
C36 a_n129_n75# a_n513_n75# 0.03fF
C37 a_n129_n75# a_n321_n75# 0.08fF
C38 a_927_n75# a_735_n75# 0.08fF
C39 a_639_n75# a_927_n75# 0.05fF
C40 a_543_n75# a_255_n75# 0.05fF
C41 a_159_n75# a_447_n75# 0.05fF
C42 a_n225_n75# a_63_n75# 0.05fF
C43 a_n33_n75# a_63_n75# 0.22fF
C44 a_n225_n75# a_n33_n75# 0.08fF
C45 a_735_n75# a_447_n75# 0.05fF
C46 a_n801_n75# a_n705_n75# 0.22fF
C47 a_639_n75# a_447_n75# 0.08fF
C48 a_831_n75# a_927_n75# 0.22fF
C49 a_n609_n75# a_n705_n75# 0.22fF
C50 a_255_n75# a_63_n75# 0.08fF
C51 a_255_n75# a_n33_n75# 0.05fF
C52 a_n989_n75# a_n897_n75# 0.22fF
C53 a_831_n75# a_447_n75# 0.03fF
C54 a_543_n75# a_927_n75# 0.03fF
C55 a_n417_n75# a_n705_n75# 0.05fF
C56 a_543_n75# a_447_n75# 0.22fF
C57 a_n513_n75# a_n225_n75# 0.05fF
C58 a_n801_n75# a_n609_n75# 0.08fF
C59 a_63_n75# a_n321_n75# 0.03fF
C60 a_n225_n75# a_n321_n75# 0.22fF
C61 a_n33_n75# a_n321_n75# 0.05fF
C62 a_447_n75# a_63_n75# 0.03fF
C63 a_159_n75# a_351_n75# 0.08fF
C64 a_n927_n101# a_33_n101# 0.08fF
C65 a_735_n75# a_351_n75# 0.03fF
C66 a_639_n75# a_351_n75# 0.05fF
C67 a_255_n75# a_447_n75# 0.08fF
C68 a_n417_n75# a_n801_n75# 0.03fF
C69 a_n417_n75# a_n609_n75# 0.08fF
C70 a_n513_n75# a_n897_n75# 0.03fF
C71 a_n989_n75# a_n705_n75# 0.05fF
C72 a_543_n75# a_351_n75# 0.08fF
C73 a_n513_n75# a_n321_n75# 0.08fF
C74 a_n129_n75# a_n417_n75# 0.05fF
C75 a_927_n75# w_n1127_n285# 0.04fF
C76 a_831_n75# w_n1127_n285# 0.04fF
C77 a_735_n75# w_n1127_n285# 0.04fF
C78 a_639_n75# w_n1127_n285# 0.04fF
C79 a_543_n75# w_n1127_n285# 0.04fF
C80 a_447_n75# w_n1127_n285# 0.04fF
C81 a_351_n75# w_n1127_n285# 0.04fF
C82 a_255_n75# w_n1127_n285# 0.04fF
C83 a_159_n75# w_n1127_n285# 0.04fF
C84 a_63_n75# w_n1127_n285# 0.04fF
C85 a_n33_n75# w_n1127_n285# 0.04fF
C86 a_n129_n75# w_n1127_n285# 0.04fF
C87 a_n225_n75# w_n1127_n285# 0.04fF
C88 a_n321_n75# w_n1127_n285# 0.04fF
C89 a_n417_n75# w_n1127_n285# 0.04fF
C90 a_n513_n75# w_n1127_n285# 0.04fF
C91 a_n609_n75# w_n1127_n285# 0.04fF
C92 a_n705_n75# w_n1127_n285# 0.04fF
C93 a_n801_n75# w_n1127_n285# 0.04fF
C94 a_n897_n75# w_n1127_n285# 0.04fF
C95 a_n989_n75# w_n1127_n285# 0.04fF
C96 a_33_n101# w_n1127_n285# 0.99fF
C97 a_n927_n101# w_n1127_n285# 0.99fF
.ends

.subckt sky130_fd_pr__pfet_01v8_NKZXKB VSUBS a_33_n247# a_n801_n150# a_n417_n150#
+ a_351_n150# a_255_n150# a_n705_n150# a_n609_n150# a_159_n150# a_543_n150# a_447_n150#
+ a_831_n150# a_n897_n150# a_n33_n150# a_735_n150# a_n927_n247# a_639_n150# a_n321_n150#
+ a_927_n150# a_n225_n150# a_63_n150# a_n989_n150# a_n513_n150# a_n129_n150# w_n1127_n369#
X0 a_n513_n150# a_n927_n247# a_n609_n150# w_n1127_n369# sky130_fd_pr__pfet_01v8 ad=0p pd=0u as=0p ps=0u w=1.5e+06u l=150000u
X1 a_63_n150# a_33_n247# a_n33_n150# w_n1127_n369# sky130_fd_pr__pfet_01v8 ad=0p pd=0u as=0p ps=0u w=1.5e+06u l=150000u
X2 a_735_n150# a_33_n247# a_639_n150# w_n1127_n369# sky130_fd_pr__pfet_01v8 ad=0p pd=0u as=0p ps=0u w=1.5e+06u l=150000u
X3 a_n801_n150# a_n927_n247# a_n897_n150# w_n1127_n369# sky130_fd_pr__pfet_01v8 ad=0p pd=0u as=0p ps=0u w=1.5e+06u l=150000u
X4 a_n129_n150# a_n927_n247# a_n225_n150# w_n1127_n369# sky130_fd_pr__pfet_01v8 ad=0p pd=0u as=0p ps=0u w=1.5e+06u l=150000u
X5 a_n417_n150# a_n927_n247# a_n513_n150# w_n1127_n369# sky130_fd_pr__pfet_01v8 ad=0p pd=0u as=0p ps=0u w=1.5e+06u l=150000u
X6 a_639_n150# a_33_n247# a_543_n150# w_n1127_n369# sky130_fd_pr__pfet_01v8 ad=0p pd=0u as=0p ps=0u w=1.5e+06u l=150000u
X7 a_n705_n150# a_n927_n247# a_n801_n150# w_n1127_n369# sky130_fd_pr__pfet_01v8 ad=0p pd=0u as=0p ps=0u w=1.5e+06u l=150000u
X8 a_n33_n150# a_n927_n247# a_n129_n150# w_n1127_n369# sky130_fd_pr__pfet_01v8 ad=0p pd=0u as=0p ps=0u w=1.5e+06u l=150000u
X9 a_351_n150# a_33_n247# a_255_n150# w_n1127_n369# sky130_fd_pr__pfet_01v8 ad=0p pd=0u as=0p ps=0u w=1.5e+06u l=150000u
X10 a_n609_n150# a_n927_n247# a_n705_n150# w_n1127_n369# sky130_fd_pr__pfet_01v8 ad=0p pd=0u as=0p ps=0u w=1.5e+06u l=150000u
X11 a_n897_n150# a_n927_n247# a_n989_n150# w_n1127_n369# sky130_fd_pr__pfet_01v8 ad=0p pd=0u as=0p ps=0u w=1.5e+06u l=150000u
X12 a_927_n150# a_33_n247# a_831_n150# w_n1127_n369# sky130_fd_pr__pfet_01v8 ad=0p pd=0u as=0p ps=0u w=1.5e+06u l=150000u
X13 a_255_n150# a_33_n247# a_159_n150# w_n1127_n369# sky130_fd_pr__pfet_01v8 ad=0p pd=0u as=0p ps=0u w=1.5e+06u l=150000u
X14 a_n321_n150# a_n927_n247# a_n417_n150# w_n1127_n369# sky130_fd_pr__pfet_01v8 ad=0p pd=0u as=0p ps=0u w=1.5e+06u l=150000u
X15 a_543_n150# a_33_n247# a_447_n150# w_n1127_n369# sky130_fd_pr__pfet_01v8 ad=0p pd=0u as=0p ps=0u w=1.5e+06u l=150000u
X16 a_831_n150# a_33_n247# a_735_n150# w_n1127_n369# sky130_fd_pr__pfet_01v8 ad=0p pd=0u as=0p ps=0u w=1.5e+06u l=150000u
X17 a_159_n150# a_33_n247# a_63_n150# w_n1127_n369# sky130_fd_pr__pfet_01v8 ad=0p pd=0u as=0p ps=0u w=1.5e+06u l=150000u
X18 a_n225_n150# a_n927_n247# a_n321_n150# w_n1127_n369# sky130_fd_pr__pfet_01v8 ad=0p pd=0u as=0p ps=0u w=1.5e+06u l=150000u
X19 a_447_n150# a_33_n247# a_351_n150# w_n1127_n369# sky130_fd_pr__pfet_01v8 ad=0p pd=0u as=0p ps=0u w=1.5e+06u l=150000u
C0 a_n927_n247# a_33_n247# 0.09fF
C1 a_n609_n150# a_n897_n150# 0.10fF
C2 a_351_n150# a_n33_n150# 0.07fF
C3 a_n801_n150# a_n897_n150# 0.43fF
C4 a_n989_n150# a_n609_n150# 0.07fF
C5 a_n513_n150# a_n417_n150# 0.43fF
C6 a_n705_n150# a_n897_n150# 0.16fF
C7 a_n225_n150# a_159_n150# 0.07fF
C8 a_n801_n150# a_n989_n150# 0.16fF
C9 a_n129_n150# a_n33_n150# 0.43fF
C10 a_n801_n150# a_n609_n150# 0.16fF
C11 a_n705_n150# a_n989_n150# 0.10fF
C12 a_159_n150# a_63_n150# 0.43fF
C13 a_543_n150# a_159_n150# 0.07fF
C14 a_n705_n150# a_n609_n150# 0.43fF
C15 a_831_n150# a_447_n150# 0.07fF
C16 a_n801_n150# a_n705_n150# 0.43fF
C17 a_351_n150# a_63_n150# 0.10fF
C18 a_n417_n150# a_n321_n150# 0.43fF
C19 a_351_n150# a_543_n150# 0.16fF
C20 a_351_n150# a_735_n150# 0.07fF
C21 a_n225_n150# a_n609_n150# 0.07fF
C22 a_n225_n150# a_n33_n150# 0.16fF
C23 a_639_n150# a_543_n150# 0.43fF
C24 a_n225_n150# a_n129_n150# 0.43fF
C25 a_639_n150# a_735_n150# 0.43fF
C26 a_n513_n150# a_n897_n150# 0.07fF
C27 a_n33_n150# a_63_n150# 0.43fF
C28 a_n129_n150# a_63_n150# 0.16fF
C29 a_255_n150# a_159_n150# 0.43fF
C30 a_927_n150# a_831_n150# 0.43fF
C31 a_n513_n150# a_n609_n150# 0.43fF
C32 a_159_n150# a_447_n150# 0.10fF
C33 a_n513_n150# a_n129_n150# 0.07fF
C34 a_n801_n150# a_n513_n150# 0.10fF
C35 a_351_n150# a_255_n150# 0.43fF
C36 a_351_n150# a_447_n150# 0.43fF