* NGSPICE file created from top_pll_v1.ext - technology: sky130A

.subckt sky130_fd_pr__res_high_po_5p73_GW5RGE w_n2133_n2890# a_n573_2292# a_821_n2724#
+ a_821_2292# a_n1967_2292# a_n573_n2724# a_n1967_n2724#
X0 a_n1967_n2724# a_n1967_2292# w_n2133_n2890# sky130_fd_pr__res_high_po_5p73 l=2.292e+07u
X1 a_n573_n2724# a_n573_2292# w_n2133_n2890# sky130_fd_pr__res_high_po_5p73 l=2.292e+07u
X2 a_821_n2724# a_821_2292# w_n2133_n2890# sky130_fd_pr__res_high_po_5p73 l=2.292e+07u
C0 a_n573_2292# a_821_2292# 0.19fF
C1 a_n573_2292# a_n1967_2292# 0.19fF
C2 a_n573_n2724# a_n1967_n2724# 0.19fF
C3 a_821_n2724# a_n573_n2724# 0.19fF
C4 a_821_n2724# w_n2133_n2890# 1.76fF
C5 a_821_2292# w_n2133_n2890# 1.76fF
C6 a_n573_n2724# w_n2133_n2890# 1.53fF
C7 a_n573_2292# w_n2133_n2890# 1.53fF
C8 a_n1967_n2724# w_n2133_n2890# 1.76fF
C9 a_n1967_2292# w_n2133_n2890# 1.76fF
.ends

.subckt sky130_fd_pr__cap_mim_m3_1_W3JTNJ VSUBS c1_n6369_n6300# m3_2169_n6400# m3_n2150_n6400#
+ c1_2269_n6300# c1_n2050_n6300# m3_n6469_n6400#
X0 c1_2269_n6300# m3_2169_n6400# sky130_fd_pr__cap_mim_m3_1 l=2e+07u w=2e+07u
X1 c1_2269_n6300# m3_2169_n6400# sky130_fd_pr__cap_mim_m3_1 l=2e+07u w=2e+07u
X2 c1_n2050_n6300# m3_n2150_n6400# sky130_fd_pr__cap_mim_m3_1 l=2e+07u w=2e+07u
X3 c1_n6369_n6300# m3_n6469_n6400# sky130_fd_pr__cap_mim_m3_1 l=2e+07u w=2e+07u
X4 c1_2269_n6300# m3_2169_n6400# sky130_fd_pr__cap_mim_m3_1 l=2e+07u w=2e+07u
X5 c1_n6369_n6300# m3_n6469_n6400# sky130_fd_pr__cap_mim_m3_1 l=2e+07u w=2e+07u
X6 c1_n2050_n6300# m3_n2150_n6400# sky130_fd_pr__cap_mim_m3_1 l=2e+07u w=2e+07u
X7 c1_n2050_n6300# m3_n2150_n6400# sky130_fd_pr__cap_mim_m3_1 l=2e+07u w=2e+07u
X8 c1_n6369_n6300# m3_n6469_n6400# sky130_fd_pr__cap_mim_m3_1 l=2e+07u w=2e+07u
C0 m3_n2150_n6400# m3_n6469_n6400# 39.69fF
C1 m3_n2150_n6400# c1_n2050_n6300# 121.67fF
C2 c1_n2050_n6300# m3_n6469_n6400# 4.84fF
C3 m3_n2150_n6400# c1_2269_n6300# 4.84fF
C4 m3_2169_n6400# c1_2269_n6300# 121.67fF
C5 c1_n6369_n6300# m3_n6469_n6400# 121.67fF
C6 c1_n6369_n6300# c1_n2050_n6300# 1.99fF
C7 c1_n2050_n6300# c1_2269_n6300# 1.99fF
C8 m3_2169_n6400# m3_n2150_n6400# 39.69fF
C9 c1_2269_n6300# VSUBS 0.16fF
C10 c1_n2050_n6300# VSUBS 0.16fF
C11 c1_n6369_n6300# VSUBS 0.16fF
C12 m3_2169_n6400# VSUBS 26.86fF
C13 m3_n2150_n6400# VSUBS 26.86fF
C14 m3_n6469_n6400# VSUBS 26.86fF
.ends

.subckt sky130_fd_pr__cap_mim_m3_1_MA89VW VSUBS c1_2769_n13100# m3_n2650_n13200# m3_n13288_n13200#
+ m3_n7969_n13200# m3_2669_n13200# c1_n2550_n13100# c1_n7869_n13100# m3_7988_n13200#
+ c1_n13188_n13100# c1_8088_n13100#
X0 c1_2769_n13100# m3_2669_n13200# sky130_fd_pr__cap_mim_m3_1 l=2.5e+07u w=2.5e+07u
X1 c1_n2550_n13100# m3_n2650_n13200# sky130_fd_pr__cap_mim_m3_1 l=2.5e+07u w=2.5e+07u
X2 c1_2769_n13100# m3_2669_n13200# sky130_fd_pr__cap_mim_m3_1 l=2.5e+07u w=2.5e+07u
X3 c1_n13188_n13100# m3_n13288_n13200# sky130_fd_pr__cap_mim_m3_1 l=2.5e+07u w=2.5e+07u
X4 c1_n7869_n13100# m3_n7969_n13200# sky130_fd_pr__cap_mim_m3_1 l=2.5e+07u w=2.5e+07u
X5 c1_n13188_n13100# m3_n13288_n13200# sky130_fd_pr__cap_mim_m3_1 l=2.5e+07u w=2.5e+07u
X6 c1_2769_n13100# m3_2669_n13200# sky130_fd_pr__cap_mim_m3_1 l=2.5e+07u w=2.5e+07u
X7 c1_8088_n13100# m3_7988_n13200# sky130_fd_pr__cap_mim_m3_1 l=2.5e+07u w=2.5e+07u
X8 c1_2769_n13100# m3_2669_n13200# sky130_fd_pr__cap_mim_m3_1 l=2.5e+07u w=2.5e+07u
X9 c1_8088_n13100# m3_7988_n13200# sky130_fd_pr__cap_mim_m3_1 l=2.5e+07u w=2.5e+07u
X10 c1_n7869_n13100# m3_n7969_n13200# sky130_fd_pr__cap_mim_m3_1 l=2.5e+07u w=2.5e+07u
X11 c1_8088_n13100# m3_7988_n13200# sky130_fd_pr__cap_mim_m3_1 l=2.5e+07u w=2.5e+07u
X12 c1_n7869_n13100# m3_n7969_n13200# sky130_fd_pr__cap_mim_m3_1 l=2.5e+07u w=2.5e+07u
X13 c1_8088_n13100# m3_7988_n13200# sky130_fd_pr__cap_mim_m3_1 l=2.5e+07u w=2.5e+07u
X14 c1_n13188_n13100# m3_n13288_n13200# sky130_fd_pr__cap_mim_m3_1 l=2.5e+07u w=2.5e+07u
X15 c1_n7869_n13100# m3_n7969_n13200# sky130_fd_pr__cap_mim_m3_1 l=2.5e+07u w=2.5e+07u
X16 c1_n2550_n13100# m3_n2650_n13200# sky130_fd_pr__cap_mim_m3_1 l=2.5e+07u w=2.5e+07u
X17 c1_n2550_n13100# m3_n2650_n13200# sky130_fd_pr__cap_mim_m3_1 l=2.5e+07u w=2.5e+07u
X18 c1_n2550_n13100# m3_n2650_n13200# sky130_fd_pr__cap_mim_m3_1 l=2.5e+07u w=2.5e+07u
X19 c1_8088_n13100# m3_7988_n13200# sky130_fd_pr__cap_mim_m3_1 l=2.5e+07u w=2.5e+07u
X20 c1_n13188_n13100# m3_n13288_n13200# sky130_fd_pr__cap_mim_m3_1 l=2.5e+07u w=2.5e+07u
X21 c1_n13188_n13100# m3_n13288_n13200# sky130_fd_pr__cap_mim_m3_1 l=2.5e+07u w=2.5e+07u
X22 c1_n7869_n13100# m3_n7969_n13200# sky130_fd_pr__cap_mim_m3_1 l=2.5e+07u w=2.5e+07u
X23 c1_n2550_n13100# m3_n2650_n13200# sky130_fd_pr__cap_mim_m3_1 l=2.5e+07u w=2.5e+07u
X24 c1_2769_n13100# m3_2669_n13200# sky130_fd_pr__cap_mim_m3_1 l=2.5e+07u w=2.5e+07u
C0 m3_n7969_n13200# m3_n13288_n13200# 81.90fF
C1 m3_7988_n13200# c1_8088_n13100# 305.88fF
C2 c1_n7869_n13100# m3_n13288_n13200# 10.12fF
C3 m3_2669_n13200# c1_2769_n13100# 305.88fF
C4 m3_2669_n13200# c1_8088_n13100# 10.12fF
C5 c1_8088_n13100# c1_2769_n13100# 4.15fF
C6 m3_2669_n13200# m3_n2650_n13200# 81.90fF
C7 c1_n7869_n13100# c1_n13188_n13100# 4.15fF
C8 c1_n2550_n13100# c1_2769_n13100# 4.15fF
C9 m3_2669_n13200# m3_7988_n13200# 81.90fF
C10 m3_n2650_n13200# c1_2769_n13100# 10.12fF
C11 m3_n13288_n13200# c1_n13188_n13100# 305.88fF
C12 m3_n7969_n13200# c1_n2550_n13100# 10.12fF
C13 c1_n7869_n13100# m3_n7969_n13200# 305.88fF
C14 m3_n2650_n13200# m3_n7969_n13200# 81.90fF
C15 c1_n7869_n13100# c1_n2550_n13100# 4.15fF
C16 m3_n2650_n13200# c1_n2550_n13100# 305.88fF
C17 c1_8088_n13100# VSUBS 0.23fF
C18 c1_2769_n13100# VSUBS 0.23fF
C19 c1_n2550_n13100# VSUBS 0.23fF
C20 c1_n7869_n13100# VSUBS 0.23fF
C21 c1_n13188_n13100# VSUBS 0.23fF
C22 m3_7988_n13200# VSUBS 63.09fF
C23 m3_2669_n13200# VSUBS 63.09fF
C24 m3_n2650_n13200# VSUBS 63.09fF
C25 m3_n7969_n13200# VSUBS 63.09fF
C26 m3_n13288_n13200# VSUBS 63.09fF
.ends

.subckt loop_filter vc_pex in vss
Xsky130_fd_pr__res_high_po_5p73_GW5RGE_0 vss vc_pex m1_166_166# vc_pex in m1_166_166#
+ m1_166_166# sky130_fd_pr__res_high_po_5p73_GW5RGE
Xsky130_fd_pr__cap_mim_m3_1_W3JTNJ_0 vss in vss vss in in vss sky130_fd_pr__cap_mim_m3_1_W3JTNJ
Xsky130_fd_pr__cap_mim_m3_1_MA89VW_0 vss vc_pex vss vss vss vss vc_pex vc_pex vss
+ vc_pex vc_pex sky130_fd_pr__cap_mim_m3_1_MA89VW
C0 vc_pex vss -1790.18fF
C1 in vss -256.75fF
C2 m1_166_166# vss 5.01fF
.ends

.subckt sky130_fd_pr__pfet_01v8_4ML9WA VSUBS a_429_n486# w_n2457_n634# a_887_n486#
+ a_n29_n486# a_1345_n486# a_n2261_n512# a_1803_n486# a_n487_n486# a_n945_n486# a_n2319_n486#
+ a_n1403_n486# a_2261_n486# a_n1861_n486#
X0 a_2261_n486# a_n2261_n512# a_1803_n486# w_n2457_n634# sky130_fd_pr__pfet_01v8 ad=0p pd=0u as=0p ps=0u w=4.5e+06u l=2e+06u
X1 a_n945_n486# a_n2261_n512# a_n1403_n486# w_n2457_n634# sky130_fd_pr__pfet_01v8 ad=0p pd=0u as=0p ps=0u w=4.5e+06u l=2e+06u
X2 a_429_n486# a_n2261_n512# a_n29_n486# w_n2457_n634# sky130_fd_pr__pfet_01v8 ad=0p pd=0u as=0p ps=0u w=4.5e+06u l=2e+06u
X3 a_1803_n486# a_n2261_n512# a_1345_n486# w_n2457_n634# sky130_fd_pr__pfet_01v8 ad=0p pd=0u as=0p ps=0u w=4.5e+06u l=2e+06u
X4 a_887_n486# a_n2261_n512# a_429_n486# w_n2457_n634# sky130_fd_pr__pfet_01v8 ad=0p pd=0u as=0p ps=0u w=4.5e+06u l=2e+06u
X5 a_n487_n486# a_n2261_n512# a_n945_n486# w_n2457_n634# sky130_fd_pr__pfet_01v8 ad=0p pd=0u as=0p ps=0u w=4.5e+06u l=2e+06u
X6 a_n1403_n486# a_n2261_n512# a_n1861_n486# w_n2457_n634# sky130_fd_pr__pfet_01v8 ad=0p pd=0u as=0p ps=0u w=4.5e+06u l=2e+06u
X7 a_n1861_n486# a_n2261_n512# a_n2319_n486# w_n2457_n634# sky130_fd_pr__pfet_01v8 ad=0p pd=0u as=0p ps=0u w=4.5e+06u l=2e+06u
X8 a_n29_n486# a_n2261_n512# a_n487_n486# w_n2457_n634# sky130_fd_pr__pfet_01v8 ad=0p pd=0u as=0p ps=0u w=4.5e+06u l=2e+06u
X9 a_1345_n486# a_n2261_n512# a_887_n486# w_n2457_n634# sky130_fd_pr__pfet_01v8 ad=0p pd=0u as=0p ps=0u w=4.5e+06u l=2e+06u
C0 w_n2457_n634# a_n945_n486# 0.02fF
C1 w_n2457_n634# a_1803_n486# 0.02fF
C2 w_n2457_n634# a_n487_n486# 0.02fF
C3 w_n2457_n634# a_429_n486# 0.02fF
C4 w_n2457_n634# a_887_n486# 0.02fF
C5 w_n2457_n634# a_n2319_n486# 0.02fF
C6 w_n2457_n634# a_n29_n486# 0.02fF
C7 a_2261_n486# w_n2457_n634# 0.02fF
C8 w_n2457_n634# a_n1861_n486# 0.02fF
C9 a_n1403_n486# w_n2457_n634# 0.02fF
C10 w_n2457_n634# a_1345_n486# 0.02fF
C11 a_2261_n486# VSUBS 0.03fF
C12 a_1803_n486# VSUBS 0.03fF
C13 a_1345_n486# VSUBS 0.03fF
C14 a_887_n486# VSUBS 0.03fF
C15 a_429_n486# VSUBS 0.03fF
C16 a_n29_n486# VSUBS 0.03fF
C17 a_n487_n486# VSUBS 0.03fF
C18 a_n945_n486# VSUBS 0.03fF
C19 a_n1403_n486# VSUBS 0.03fF
C20 a_n1861_n486# VSUBS 0.03fF
C21 a_n2319_n486# VSUBS 0.03fF
C22 a_n2261_n512# VSUBS 4.27fF
C23 w_n2457_n634# VSUBS 21.34fF
.ends

.subckt sky130_fd_pr__nfet_01v8_YCGG98 a_n1041_n75# a_n561_n75# a_1167_n75# a_303_n75#
+ a_687_n75# a_n849_n75# a_n369_n75# a_975_n75# a_111_n75# a_495_n75# a_n1137_n75#
+ a_n657_n75# a_n177_n75# a_783_n75# a_n945_n75# a_n465_n75# a_207_n75# a_1071_n75#
+ a_591_n75# a_15_n75# a_n753_n75# w_n1367_n285# a_n273_n75# a_879_n75# a_399_n75#
+ a_n1229_n75# a_n81_n75# a_n1167_n101#
X0 a_207_n75# a_n1167_n101# a_111_n75# w_n1367_n285# sky130_fd_pr__nfet_01v8 ad=0p pd=0u as=0p ps=0u w=750000u l=150000u
X1 a_303_n75# a_n1167_n101# a_207_n75# w_n1367_n285# sky130_fd_pr__nfet_01v8 ad=0p pd=0u as=0p ps=0u w=750000u l=150000u
X2 a_399_n75# a_n1167_n101# a_303_n75# w_n1367_n285# sky130_fd_pr__nfet_01v8 ad=0p pd=0u as=0p ps=0u w=750000u l=150000u
X3 a_495_n75# a_n1167_n101# a_399_n75# w_n1367_n285# sky130_fd_pr__nfet_01v8 ad=0p pd=0u as=0p ps=0u w=750000u l=150000u
X4 a_591_n75# a_n1167_n101# a_495_n75# w_n1367_n285# sky130_fd_pr__nfet_01v8 ad=0p pd=0u as=0p ps=0u w=750000u l=150000u
X5 a_783_n75# a_n1167_n101# a_687_n75# w_n1367_n285# sky130_fd_pr__nfet_01v8 ad=0p pd=0u as=0p ps=0u w=750000u l=150000u
X6 a_687_n75# a_n1167_n101# a_591_n75# w_n1367_n285# sky130_fd_pr__nfet_01v8 ad=0p pd=0u as=0p ps=0u w=750000u l=150000u
X7 a_879_n75# a_n1167_n101# a_783_n75# w_n1367_n285# sky130_fd_pr__nfet_01v8 ad=0p pd=0u as=0p ps=0u w=750000u l=150000u
X8 a_975_n75# a_n1167_n101# a_879_n75# w_n1367_n285# sky130_fd_pr__nfet_01v8 ad=0p pd=0u as=0p ps=0u w=750000u l=150000u
X9 a_n1041_n75# a_n1167_n101# a_n1137_n75# w_n1367_n285# sky130_fd_pr__nfet_01v8 ad=0p pd=0u as=0p ps=0u w=750000u l=150000u
X10 a_n1137_n75# a_n1167_n101# a_n1229_n75# w_n1367_n285# sky130_fd_pr__nfet_01v8 ad=0p pd=0u as=0p ps=0u w=750000u l=150000u
X11 a_n561_n75# a_n1167_n101# a_n657_n75# w_n1367_n285# sky130_fd_pr__nfet_01v8 ad=0p pd=0u as=0p ps=0u w=750000u l=150000u
X12 a_1071_n75# a_n1167_n101# a_975_n75# w_n1367_n285# sky130_fd_pr__nfet_01v8 ad=0p pd=0u as=0p ps=0u w=750000u l=150000u
X13 a_n945_n75# a_n1167_n101# a_n1041_n75# w_n1367_n285# sky130_fd_pr__nfet_01v8 ad=0p pd=0u as=0p ps=0u w=750000u l=150000u
X14 a_n753_n75# a_n1167_n101# a_n849_n75# w_n1367_n285# sky130_fd_pr__nfet_01v8 ad=0p pd=0u as=0p ps=0u w=750000u l=150000u
X15 a_n657_n75# a_n1167_n101# a_n753_n75# w_n1367_n285# sky130_fd_pr__nfet_01v8 ad=0p pd=0u as=0p ps=0u w=750000u l=150000u
X16 a_n465_n75# a_n1167_n101# a_n561_n75# w_n1367_n285# sky130_fd_pr__nfet_01v8 ad=0p pd=0u as=0p ps=0u w=750000u l=150000u
X17 a_n369_n75# a_n1167_n101# a_n465_n75# w_n1367_n285# sky130_fd_pr__nfet_01v8 ad=0p pd=0u as=0p ps=0u w=750000u l=150000u
X18 a_1167_n75# a_n1167_n101# a_1071_n75# w_n1367_n285# sky130_fd_pr__nfet_01v8 ad=0p pd=0u as=0p ps=0u w=750000u l=150000u
X19 a_n849_n75# a_n1167_n101# a_n945_n75# w_n1367_n285# sky130_fd_pr__nfet_01v8 ad=0p pd=0u as=0p ps=0u w=750000u l=150000u
X20 a_15_n75# a_n1167_n101# a_n81_n75# w_n1367_n285# sky130_fd_pr__nfet_01v8 ad=0p pd=0u as=0p ps=0u w=750000u l=150000u
X21 a_n81_n75# a_n1167_n101# a_n177_n75# w_n1367_n285# sky130_fd_pr__nfet_01v8 ad=0p pd=0u as=0p ps=0u w=750000u l=150000u
X22 a_111_n75# a_n1167_n101# a_15_n75# w_n1367_n285# sky130_fd_pr__nfet_01v8 ad=0p pd=0u as=0p ps=0u w=750000u l=150000u
X23 a_n273_n75# a_n1167_n101# a_n369_n75# w_n1367_n285# sky130_fd_pr__nfet_01v8 ad=0p pd=0u as=0p ps=0u w=750000u l=150000u
X24 a_n177_n75# a_n1167_n101# a_n273_n75# w_n1367_n285# sky130_fd_pr__nfet_01v8 ad=0p pd=0u as=0p ps=0u w=750000u l=150000u
C0 a_591_n75# a_207_n75# 0.03fF
C1 a_n657_n75# a_n1041_n75# 0.03fF
C2 a_n465_n75# a_n561_n75# 0.22fF
C3 a_n945_n75# a_n849_n75# 0.22fF
C4 a_303_n75# a_591_n75# 0.05fF
C5 a_1071_n75# a_687_n75# 0.03fF
C6 a_n177_n75# a_n273_n75# 0.22fF
C7 a_399_n75# a_495_n75# 0.22fF
C8 a_n753_n75# a_n1041_n75# 0.05fF
C9 a_n561_n75# a_n369_n75# 0.08fF
C10 a_879_n75# a_495_n75# 0.03fF
C11 a_n1229_n75# a_n1041_n75# 0.08fF
C12 a_15_n75# a_n369_n75# 0.03fF
C13 a_n1137_n75# a_n849_n75# 0.05fF
C14 a_399_n75# a_783_n75# 0.03fF
C15 a_879_n75# a_783_n75# 0.22fF
C16 a_303_n75# a_687_n75# 0.03fF
C17 a_591_n75# a_687_n75# 0.22fF
C18 a_n945_n75# a_n1041_n75# 0.22fF
C19 a_879_n75# a_975_n75# 0.22fF
C20 a_n177_n75# a_n465_n75# 0.05fF
C21 a_495_n75# a_783_n75# 0.05fF
C22 a_n753_n75# a_n657_n75# 0.22fF
C23 a_399_n75# a_15_n75# 0.03fF
C24 a_n465_n75# a_n273_n75# 0.08fF
C25 a_n177_n75# a_n369_n75# 0.08fF
C26 a_399_n75# a_111_n75# 0.05fF
C27 a_n1137_n75# a_n1041_n75# 0.22fF
C28 a_n561_n75# a_n657_n75# 0.22fF
C29 a_879_n75# a_1071_n75# 0.08fF
C30 a_n273_n75# a_n369_n75# 0.22fF
C31 a_1167_n75# a_879_n75# 0.05fF
C32 a_975_n75# a_783_n75# 0.08fF
C33 a_n81_n75# a_15_n75# 0.22fF
C34 a_n753_n75# a_n561_n75# 0.08fF
C35 a_495_n75# a_111_n75# 0.03fF
C36 a_n945_n75# a_n657_n75# 0.05fF
C37 a_n81_n75# a_111_n75# 0.08fF
C38 a_n465_n75# a_n849_n75# 0.03fF
C39 a_399_n75# a_207_n75# 0.08fF
C40 a_399_n75# a_303_n75# 0.22fF
C41 a_399_n75# a_591_n75# 0.08fF
C42 a_n945_n75# a_n753_n75# 0.08fF
C43 a_1071_n75# a_783_n75# 0.05fF
C44 a_879_n75# a_591_n75# 0.05fF
C45 a_1167_n75# a_783_n75# 0.03fF
C46 a_n945_n75# a_n1229_n75# 0.05fF
C47 a_495_n75# a_207_n75# 0.05fF
C48 a_n81_n75# a_207_n75# 0.05fF
C49 a_n465_n75# a_n369_n75# 0.22fF
C50 a_1071_n75# a_975_n75# 0.22fF
C51 a_1167_n75# a_975_n75# 0.08fF
C52 a_n945_n75# a_n561_n75# 0.03fF
C53 a_n849_n75# a_n1041_n75# 0.08fF
C54 a_n177_n75# a_n81_n75# 0.22fF
C55 a_303_n75# a_495_n75# 0.08fF
C56 a_591_n75# a_495_n75# 0.22fF
C57 a_303_n75# a_n81_n75# 0.03fF
C58 a_n753_n75# a_n1137_n75# 0.03fF
C59 a_n81_n75# a_n273_n75# 0.08fF
C60 a_n273_n75# a_n657_n75# 0.03fF
C61 a_n1137_n75# a_n1229_n75# 0.22fF
C62 a_15_n75# a_111_n75# 0.22fF
C63 a_399_n75# a_687_n75# 0.05fF
C64 a_591_n75# a_783_n75# 0.08fF
C65 a_879_n75# a_687_n75# 0.08fF
C66 a_1167_n75# a_1071_n75# 0.22fF
C67 a_591_n75# a_975_n75# 0.03fF
C68 a_n177_n75# a_n561_n75# 0.03fF
C69 a_495_n75# a_687_n75# 0.08fF
C70 a_n945_n75# a_n1137_n75# 0.08fF
C71 a_207_n75# a_15_n75# 0.08fF
C72 a_n849_n75# a_n657_n75# 0.08fF
C73 a_n273_n75# a_n561_n75# 0.05fF
C74 a_n177_n75# a_15_n75# 0.08fF
C75 a_207_n75# a_111_n75# 0.22fF
C76 a_303_n75# a_15_n75# 0.05fF
C77 a_n177_n75# a_111_n75# 0.05fF
C78 a_303_n75# a_111_n75# 0.08fF
C79 a_n465_n75# a_n81_n75# 0.03fF
C80 a_n465_n75# a_n657_n75# 0.08fF
C81 a_n273_n75# a_15_n75# 0.05fF
C82 a_n753_n75# a_n849_n75# 0.22fF
C83 a_687_n75# a_783_n75# 0.22fF
C84 a_n273_n75# a_111_n75# 0.03fF
C85 a_n849_n75# a_n1229_n75# 0.03fF
C86 a_n81_n75# a_n369_n75# 0.05fF
C87 a_n657_n75# a_n369_n75# 0.05fF
C88 a_975_n75# a_687_n75# 0.05fF
C89 a_n753_n75# a_n465_n75# 0.05fF
C90 a_n849_n75# a_n561_n75# 0.05fF
C91 a_n177_n75# a_207_n75# 0.03fF
C92 a_303_n75# a_207_n75# 0.22fF
C93 a_n753_n75# a_n369_n75# 0.03fF
C94 a_1167_n75# w_n1367_n285# 0.10fF
C95 a_1071_n75# w_n1367_n285# 0.07fF
C96 a_975_n75# w_n1367_n285# 0.06fF
C97 a_879_n75# w_n1367_n285# 0.05fF
C98 a_783_n75# w_n1367_n285# 0.04fF
C99 a_687_n75# w_n1367_n285# 0.04fF
C100 a_591_n75# w_n1367_n285# 0.04fF
C101 a_495_n75# w_n1367_n285# 0.04fF
C102 a_399_n75# w_n1367_n285# 0.04fF
C103 a_303_n75# w_n1367_n285# 0.04fF
C104 a_207_n75# w_n1367_n285# 0.04fF
C105 a_111_n75# w_n1367_n285# 0.04fF
C106 a_15_n75# w_n1367_n285# 0.04fF
C107 a_n81_n75# w_n1367_n285# 0.04fF
C108 a_n177_n75# w_n1367_n285# 0.04fF
C109 a_n273_n75# w_n1367_n285# 0.04fF
C110 a_n369_n75# w_n1367_n285# 0.04fF
C111 a_n465_n75# w_n1367_n285# 0.04fF
C112 a_n561_n75# w_n1367_n285# 0.04fF
C113 a_n657_n75# w_n1367_n285# 0.04fF
C114 a_n753_n75# w_n1367_n285# 0.04fF
C115 a_n849_n75# w_n1367_n285# 0.04fF
C116 a_n945_n75# w_n1367_n285# 0.04fF
C117 a_n1041_n75# w_n1367_n285# 0.04fF
C118 a_n1137_n75# w_n1367_n285# 0.04fF
C119 a_n1229_n75# w_n1367_n285# 0.04fF
C120 a_n1167_n101# w_n1367_n285# 2.55fF
.ends

.subckt sky130_fd_pr__nfet_01v8_MUHGM9 a_33_n101# a_n129_n75# a_735_n75# a_255_n75#
+ a_n417_n75# a_n989_n75# a_63_n75# a_543_n75# a_n705_n75# a_n225_n75# a_n33_n75#
+ a_831_n75# a_351_n75# a_n927_n101# a_n513_n75# a_n897_n75# w_n1127_n285# a_639_n75#
+ a_159_n75# a_n801_n75# a_n321_n75# a_927_n75# a_447_n75# a_n609_n75#
X0 a_63_n75# a_33_n101# a_n33_n75# w_n1127_n285# sky130_fd_pr__nfet_01v8 ad=0p pd=0u as=0p ps=0u w=750000u l=150000u
X1 a_927_n75# a_33_n101# a_831_n75# w_n1127_n285# sky130_fd_pr__nfet_01v8 ad=0p pd=0u as=0p ps=0u w=750000u l=150000u
X2 a_n33_n75# a_n927_n101# a_n129_n75# w_n1127_n285# sky130_fd_pr__nfet_01v8 ad=0p pd=0u as=0p ps=0u w=750000u l=150000u
X3 a_159_n75# a_33_n101# a_63_n75# w_n1127_n285# sky130_fd_pr__nfet_01v8 ad=0p pd=0u as=0p ps=0u w=750000u l=150000u
X4 a_255_n75# a_33_n101# a_159_n75# w_n1127_n285# sky130_fd_pr__nfet_01v8 ad=0p pd=0u as=0p ps=0u w=750000u l=150000u
X5 a_351_n75# a_33_n101# a_255_n75# w_n1127_n285# sky130_fd_pr__nfet_01v8 ad=0p pd=0u as=0p ps=0u w=750000u l=150000u
X6 a_447_n75# a_33_n101# a_351_n75# w_n1127_n285# sky130_fd_pr__nfet_01v8 ad=0p pd=0u as=0p ps=0u w=750000u l=150000u
X7 a_543_n75# a_33_n101# a_447_n75# w_n1127_n285# sky130_fd_pr__nfet_01v8 ad=0p pd=0u as=0p ps=0u w=750000u l=150000u
X8 a_735_n75# a_33_n101# a_639_n75# w_n1127_n285# sky130_fd_pr__nfet_01v8 ad=0p pd=0u as=0p ps=0u w=750000u l=150000u
X9 a_831_n75# a_33_n101# a_735_n75# w_n1127_n285# sky130_fd_pr__nfet_01v8 ad=0p pd=0u as=0p ps=0u w=750000u l=150000u
X10 a_639_n75# a_33_n101# a_543_n75# w_n1127_n285# sky130_fd_pr__nfet_01v8 ad=0p pd=0u as=0p ps=0u w=750000u l=150000u
X11 a_n321_n75# a_n927_n101# a_n417_n75# w_n1127_n285# sky130_fd_pr__nfet_01v8 ad=0p pd=0u as=0p ps=0u w=750000u l=150000u
X12 a_n801_n75# a_n927_n101# a_n897_n75# w_n1127_n285# sky130_fd_pr__nfet_01v8 ad=0p pd=0u as=0p ps=0u w=750000u l=150000u
X13 a_n705_n75# a_n927_n101# a_n801_n75# w_n1127_n285# sky130_fd_pr__nfet_01v8 ad=0p pd=0u as=0p ps=0u w=750000u l=150000u
X14 a_n513_n75# a_n927_n101# a_n609_n75# w_n1127_n285# sky130_fd_pr__nfet_01v8 ad=0p pd=0u as=0p ps=0u w=750000u l=150000u
X15 a_n417_n75# a_n927_n101# a_n513_n75# w_n1127_n285# sky130_fd_pr__nfet_01v8 ad=0p pd=0u as=0p ps=0u w=750000u l=150000u
X16 a_n225_n75# a_n927_n101# a_n321_n75# w_n1127_n285# sky130_fd_pr__nfet_01v8 ad=0p pd=0u as=0p ps=0u w=750000u l=150000u
X17 a_n129_n75# a_n927_n101# a_n225_n75# w_n1127_n285# sky130_fd_pr__nfet_01v8 ad=0p pd=0u as=0p ps=0u w=750000u l=150000u
X18 a_n897_n75# a_n927_n101# a_n989_n75# w_n1127_n285# sky130_fd_pr__nfet_01v8 ad=0p pd=0u as=0p ps=0u w=750000u l=150000u
X19 a_n609_n75# a_n927_n101# a_n705_n75# w_n1127_n285# sky130_fd_pr__nfet_01v8 ad=0p pd=0u as=0p ps=0u w=750000u l=150000u
C0 a_n225_n75# a_159_n75# 0.03fF
C1 a_n609_n75# a_n513_n75# 0.22fF
C2 a_n609_n75# a_n225_n75# 0.03fF
C3 a_n33_n75# a_351_n75# 0.03fF
C4 a_n417_n75# a_n801_n75# 0.03fF
C5 a_447_n75# a_159_n75# 0.05fF
C6 a_n513_n75# a_n225_n75# 0.05fF
C7 a_543_n75# a_447_n75# 0.22fF
C8 a_n417_n75# a_n321_n75# 0.22fF
C9 a_n989_n75# a_n897_n75# 0.22fF
C10 a_735_n75# a_351_n75# 0.03fF
C11 a_n417_n75# a_n33_n75# 0.03fF
C12 a_159_n75# a_n129_n75# 0.05fF
C13 a_n897_n75# a_n705_n75# 0.08fF
C14 a_n513_n75# a_n129_n75# 0.03fF
C15 a_n225_n75# a_n129_n75# 0.22fF
C16 a_n321_n75# a_63_n75# 0.03fF
C17 a_n609_n75# a_n897_n75# 0.05fF
C18 a_255_n75# a_159_n75# 0.22fF
C19 a_543_n75# a_255_n75# 0.05fF
C20 a_n513_n75# a_n897_n75# 0.03fF
C21 a_n321_n75# a_n33_n75# 0.05fF
C22 a_159_n75# a_351_n75# 0.08fF
C23 a_63_n75# a_n33_n75# 0.22fF
C24 a_255_n75# a_447_n75# 0.08fF
C25 a_543_n75# a_351_n75# 0.08fF
C26 a_639_n75# a_927_n75# 0.05fF
C27 a_447_n75# a_351_n75# 0.22fF
C28 a_n989_n75# a_n801_n75# 0.08fF
C29 a_n417_n75# a_n705_n75# 0.05fF
C30 a_639_n75# a_735_n75# 0.22fF
C31 a_639_n75# a_831_n75# 0.08fF
C32 a_255_n75# a_n129_n75# 0.03fF
C33 a_n801_n75# a_n705_n75# 0.22fF
C34 a_n417_n75# a_n609_n75# 0.08fF
C35 a_n417_n75# a_n513_n75# 0.22fF
C36 a_n417_n75# a_n225_n75# 0.08fF
C37 a_n609_n75# a_n801_n75# 0.08fF
C38 a_n321_n75# a_n705_n75# 0.03fF
C39 a_n513_n75# a_n801_n75# 0.05fF
C40 a_n609_n75# a_n321_n75# 0.05fF
C41 a_927_n75# a_735_n75# 0.08fF
C42 a_255_n75# a_351_n75# 0.22fF
C43 a_33_n101# a_n927_n101# 0.08fF
C44 a_543_n75# a_639_n75# 0.22fF
C45 a_n513_n75# a_n321_n75# 0.08fF
C46 a_n225_n75# a_n321_n75# 0.22fF
C47 a_927_n75# a_831_n75# 0.22fF
C48 a_159_n75# a_63_n75# 0.22fF
C49 a_n225_n75# a_63_n75# 0.05fF
C50 a_639_n75# a_447_n75# 0.08fF
C51 a_159_n75# a_n33_n75# 0.08fF
C52 a_735_n75# a_831_n75# 0.22fF
C53 a_n417_n75# a_n129_n75# 0.05fF
C54 a_447_n75# a_63_n75# 0.03fF
C55 a_n225_n75# a_n33_n75# 0.08fF
C56 a_543_n75# a_927_n75# 0.03fF
C57 a_n897_n75# a_n801_n75# 0.22fF
C58 a_n321_n75# a_n129_n75# 0.08fF
C59 a_n989_n75# a_n705_n75# 0.05fF
C60 a_543_n75# a_735_n75# 0.08fF
C61 a_n129_n75# a_63_n75# 0.08fF
C62 a_n989_n75# a_n609_n75# 0.03fF
C63 a_543_n75# a_831_n75# 0.05fF
C64 a_255_n75# a_639_n75# 0.03fF
C65 a_447_n75# a_735_n75# 0.05fF
C66 a_n129_n75# a_n33_n75# 0.22fF
C67 a_255_n75# a_63_n75# 0.08fF
C68 a_447_n75# a_831_n75# 0.03fF
C69 a_n609_n75# a_n705_n75# 0.22fF
C70 a_639_n75# a_351_n75# 0.05fF
C71 a_255_n75# a_n33_n75# 0.05fF
C72 a_n513_n75# a_n705_n75# 0.08fF
C73 a_63_n75# a_351_n75# 0.05fF
C74 a_543_n75# a_159_n75# 0.03fF
C75 a_927_n75# w_n1127_n285# 0.04fF
C76 a_831_n75# w_n1127_n285# 0.04fF
C77 a_735_n75# w_n1127_n285# 0.04fF
C78 a_639_n75# w_n1127_n285# 0.04fF
C79 a_543_n75# w_n1127_n285# 0.04fF
C80 a_447_n75# w_n1127_n285# 0.04fF
C81 a_351_n75# w_n1127_n285# 0.04fF
C82 a_255_n75# w_n1127_n285# 0.04fF
C83 a_159_n75# w_n1127_n285# 0.04fF
C84 a_63_n75# w_n1127_n285# 0.04fF
C85 a_n33_n75# w_n1127_n285# 0.04fF
C86 a_n129_n75# w_n1127_n285# 0.04fF
C87 a_n225_n75# w_n1127_n285# 0.04fF
C88 a_n321_n75# w_n1127_n285# 0.04fF
C89 a_n417_n75# w_n1127_n285# 0.04fF
C90 a_n513_n75# w_n1127_n285# 0.04fF
C91 a_n609_n75# w_n1127_n285# 0.04fF
C92 a_n705_n75# w_n1127_n285# 0.04fF
C93 a_n801_n75# w_n1127_n285# 0.04fF
C94 a_n897_n75# w_n1127_n285# 0.04fF
C95 a_n989_n75# w_n1127_n285# 0.04fF
C96 a_33_n101# w_n1127_n285# 0.99fF
C97 a_n927_n101# w_n1127_n285# 0.99fF
.ends

.subckt sky130_fd_pr__pfet_01v8_NKZXKB VSUBS a_33_n247# a_n801_n150# a_n417_n150#
+ a_351_n150# a_255_n150# a_n705_n150# a_n609_n150# a_159_n150# a_543_n150# a_447_n150#
+ a_831_n150# a_n897_n150# a_n33_n150# a_735_n150# a_n927_n247# a_639_n150# a_n321_n150#
+ a_927_n150# a_n225_n150# a_63_n150# a_n989_n150# a_n513_n150# a_n129_n150# w_n1127_n369#
X0 a_n513_n150# a_n927_n247# a_n609_n150# w_n1127_n369# sky130_fd_pr__pfet_01v8 ad=0p pd=0u as=0p ps=0u w=1.5e+06u l=150000u
X1 a_63_n150# a_33_n247# a_n33_n150# w_n1127_n369# sky130_fd_pr__pfet_01v8 ad=0p pd=0u as=0p ps=0u w=1.5e+06u l=150000u
X2 a_735_n150# a_33_n247# a_639_n150# w_n1127_n369# sky130_fd_pr__pfet_01v8 ad=0p pd=0u as=0p ps=0u w=1.5e+06u l=150000u
X3 a_n801_n150# a_n927_n247# a_n897_n150# w_n1127_n369# sky130_fd_pr__pfet_01v8 ad=0p pd=0u as=0p ps=0u w=1.5e+06u l=150000u
X4 a_n129_n150# a_n927_n247# a_n225_n150# w_n1127_n369# sky130_fd_pr__pfet_01v8 ad=0p pd=0u as=0p ps=0u w=1.5e+06u l=150000u
X5 a_n417_n150# a_n927_n247# a_n513_n150# w_n1127_n369# sky130_fd_pr__pfet_01v8 ad=0p pd=0u as=0p ps=0u w=1.5e+06u l=150000u
X6 a_639_n150# a_33_n247# a_543_n150# w_n1127_n369# sky130_fd_pr__pfet_01v8 ad=0p pd=0u as=0p ps=0u w=1.5e+06u l=150000u
X7 a_n705_n150# a_n927_n247# a_n801_n150# w_n1127_n369# sky130_fd_pr__pfet_01v8 ad=0p pd=0u as=0p ps=0u w=1.5e+06u l=150000u
X8 a_n33_n150# a_n927_n247# a_n129_n150# w_n1127_n369# sky130_fd_pr__pfet_01v8 ad=0p pd=0u as=0p ps=0u w=1.5e+06u l=150000u
X9 a_351_n150# a_33_n247# a_255_n150# w_n1127_n369# sky130_fd_pr__pfet_01v8 ad=0p pd=0u as=0p ps=0u w=1.5e+06u l=150000u
X10 a_n609_n150# a_n927_n247# a_n705_n150# w_n1127_n369# sky130_fd_pr__pfet_01v8 ad=0p pd=0u as=0p ps=0u w=1.5e+06u l=150000u
X11 a_n897_n150# a_n927_n247# a_n989_n150# w_n1127_n369# sky130_fd_pr__pfet_01v8 ad=0p pd=0u as=0p ps=0u w=1.5e+06u l=150000u
X12 a_927_n150# a_33_n247# a_831_n150# w_n1127_n369# sky130_fd_pr__pfet_01v8 ad=0p pd=0u as=0p ps=0u w=1.5e+06u l=150000u
X13 a_255_n150# a_33_n247# a_159_n150# w_n1127_n369# sky130_fd_pr__pfet_01v8 ad=0p pd=0u as=0p ps=0u w=1.5e+06u l=150000u
X14 a_n321_n150# a_n927_n247# a_n417_n150# w_n1127_n369# sky130_fd_pr__pfet_01v8 ad=0p pd=0u as=0p ps=0u w=1.5e+06u l=150000u
X15 a_543_n150# a_33_n247# a_447_n150# w_n1127_n369# sky130_fd_pr__pfet_01v8 ad=0p pd=0u as=0p ps=0u w=1.5e+06u l=150000u
X16 a_831_n150# a_33_n247# a_735_n150# w_n1127_n369# sky130_fd_pr__pfet_01v8 ad=0p pd=0u as=0p ps=0u w=1.5e+06u l=150000u
X17 a_159_n150# a_33_n247# a_63_n150# w_n1127_n369# sky130_fd_pr__pfet_01v8 ad=0p pd=0u as=0p ps=0u w=1.5e+06u l=150000u
X18 a_n225_n150# a_n927_n247# a_n321_n150# w_n1127_n369# sky130_fd_pr__pfet_01v8 ad=0p pd=0u as=0p ps=0u w=1.5e+06u l=150000u
X19 a_447_n150# a_33_n247# a_351_n150# w_n1127_n369# sky130_fd_pr__pfet_01v8 ad=0p pd=0u as=0p ps=0u w=1.5e+06u l=150000u
C0 a_255_n150# a_639_n150# 0.07fF
C1 a_n33_n150# a_351_n150# 0.07fF
C2 a_447_n150# a_63_n150# 0.07fF
C3 a_n513_n150# a_n609_n150# 0.43fF
C4 a_n129_n150# a_63_n150# 0.16fF
C5 a_735_n150# a_927_n150# 0.16fF
C6 a_831_n150# a_543_n150# 0.10fF
C7 a_n33_n150# a_63_n150# 0.43fF
C8 a_n321_n150# a_63_n150# 0.07fF
C9 a_831_n150# a_447_n150# 0.07fF
C10 a_63_n150# a_n225_n150# 0.10fF
C11 a_639_n150# a_351_n150# 0.10fF
C12 a_n417_n150# a_n705_n150# 0.10fF
C13 a_n801_n150# a_n705_n150# 0.43fF
C14 a_n417_n150# a_n801_n150# 0.07fF
C15 a_255_n150# a_351_n150# 0.43fF
C16 a_159_n150# a_543_n150# 0.07fF
C17 a_33_n247# a_n927_n247# 0.09fF
C18 a_735_n150# a_639_n150# 0.43fF
C19 a_n989_n150# a_n609_n150# 0.07fF
C20 a_159_n150# a_447_n150# 0.10fF
C21 a_n897_n150# a_n705_n150# 0.16fF
C22 a_n897_n150# a_n801_n150# 0.43fF
C23 a_543_n150# a_447_n150# 0.43fF
C24 a_831_n150# a_927_n150# 0.43fF
C25 a_255_n150# a_63_n150# 0.16fF
C26 a_n129_n150# a_159_n150# 0.10fF
C27 a_n417_n150# a_n129_n150# 0.10fF
C28 a_n33_n150# a_159_n150# 0.16fF
C29 a_n417_n150# a_n33_n150# 0.07fF
C30 a_n321_n150# a_n705_n150# 0.07fF
C31 a_n417_n150# a_n321_n150# 0.43fF
C32 a_159_n150# a_n225_n150# 0.07fF
C33 a_n417_n150# a_n225_n150# 0.16fF
C34 a_735_n150# a_351_n150# 0.07fF
C35 a_831_n150# a_639_n150# 0.16fF
C36 a_927_n150# a_543_n150# 0.07fF
C37 a_351_n150# a_63_n150# 0.10fF
C38 a_n129_n150# a_n33_n150# 0.43fF
C39 a_n129_n150# a_n321_n150# 0.16fF
C40 a_n513_n150# a_n705_n150# 0.16fF
C41 a_n513_n150# a_n417_n150# 0.43fF
C42 a_255_n150# a_159_n150# 0.43fF
C43 a_n513_n150# a_n801_n150# 0.10fF
C44 a_n129_n150# a_n225_n150# 0.43fF
C45 a_639_n150# a_543_n150# 0.43fF
C46 a_n33_n150# a_n321_n150# 0.10fF
C47 a_n609_n150# a_n705_n150# 0.43fF
C48 a_255_n150# a_543_n150# 0.10fF
C49 a_n33_n150# a_n225_n150# 0.16fF
C50 a_n417_n150# a_n609_n150# 0.16fF
C51 a_639_n150# a_447_n150# 0.16fF
C52 a_n609_n150# a_n801_n150# 0.16fF
C53 a_n321_n150# a_n225_n150# 0.43fF
C54 a_n897_n150# a_n513_n150# 0.07fF
C55 a_255_n150# a_447_n150# 0.16fF
C56 a_n897_n150# a_n609_n150# 0.10fF
C57 a_831_n150# a_735_n150# 0.43fF
C58 a_n513_n150# a_n129_n150# 0.07fF
C59 a_255_n150# a_n129_n150# 0.07fF
C60 a_159_n150# a_351_n150# 0.16fF
C61 a_n989_n150# a_n705_n150# 0.10fF
C62 a_n989_n150# a_n801_n150# 0.16fF
C63 a_n513_n150# a_n321_n150# 0.16fF
C64 a_255_n150# a_n33_n150# 0.10fF
C65 a_351_n150# a_543_n150# 0.16fF
C66 a_927_n150# a_639_n150# 0.10fF
C67 a_n513_n150# a_n225_n150# 0.10fF
C68 a_n897_n150# a_n989_n150# 0.43fF
C69 a_n609_n150# a_n321_n150# 0.10fF
C70 a_351_n150# a_447_n150# 0.43fF
C71 a_735_n150# a_543_n150# 0.16fF
C72 a_n609_n150# a_n225_n150# 0.07fF
C73 a_159_n150# a_63_n150# 0.43fF
C74 a_735_n150# a_447_n150# 0.10fF
C75 a_927_n150# VSUBS 0.03fF
C76 a_831_n150# VSUBS 0.03fF
C77 a_735_n150# VSUBS 0.03fF
C78 a_639_n150# VSUBS 0.03fF
C79 a_543_n150# VSUBS 0.03fF
C80 a_447_n150# VSUBS 0.03fF
C81 a_351_n150# VSUBS 0.03fF
C82 a_255_n150# VSUBS 0.03fF
C83 a_159_n150# VSUBS 0.03fF
C84 a_63_n150# VSUBS 0.03fF
C85 a_n33_n150# VSUBS 0.03fF
C86 a_n129_n150# VSUBS 0.03fF
C87 a_n225_n150# VSUBS 0.03fF
C88 a_n321_n150# VSUBS 0.03fF
C89 a_n417_n150# VSUBS 0.03fF
C90 a_n513_n150# VSUBS 0.03fF
C91 a_n609_n150# VSUBS 0.03fF
C92 a_n705_n150# VSUBS 0.03fF
C93 a_n801_n150# VSUBS 0.03fF
C94 a_n897_n150# VSUBS 0.03fF
C95 a_n989_n150# VSUBS 0.03fF
C96 a_33_n247# VSUBS 1.04fF
C97 a_n927_n247# VSUBS 1.04fF
C98 w_n1127_n369# VSUBS 6.17fF
.ends

.subckt sky130_fd_pr__nfet_01v8_8GRULZ a_n1761_n132# a_1045_n44# a_n1461_n44# a_n1103_n44#
+ a_n29_n44# a_n387_n44# a_1761_n44# a_n1819_n44# a_1403_n44# a_687_n44# w_n1957_n254#
+ a_329_n44# a_n745_n44#
X0 a_329_n44# a_n1761_n132# a_n29_n44# w_n1957_n254# sky130_fd_pr__nfet_01v8 ad=0p pd=0u as=0p ps=0u w=750000u l=1.5e+06u
X1 a_1761_n44# a_n1761_n132# a_1403_n44# w_n1957_n254# sky130_fd_pr__nfet_01v8 ad=0p pd=0u as=0p ps=0u w=750000u l=1.5e+06u
X2 a_n745_n44# a_n1761_n132# a_n1103_n44# w_n1957_n254# sky130_fd_pr__nfet_01v8 ad=0p pd=0u as=0p ps=0u w=750000u l=1.5e+06u
X3 a_1045_n44# a_n1761_n132# a_687_n44# w_n1957_n254# sky130_fd_pr__nfet_01v8 ad=0p pd=0u as=0p ps=0u w=750000u l=1.5e+06u
X4 a_n29_n44# a_n1761_n132# a_n387_n44# w_n1957_n254# sky130_fd_pr__nfet_01v8 ad=0p pd=0u as=0p ps=0u w=750000u l=1.5e+06u
X5 a_n1103_n44# a_n1761_n132# a_n1461_n44# w_n1957_n254# sky130_fd_pr__nfet_01v8 ad=0p pd=0u as=0p ps=0u w=750000u l=1.5e+06u
X6 a_n387_n44# a_n1761_n132# a_n745_n44# w_n1957_n254# sky130_fd_pr__nfet_01v8 ad=0p pd=0u as=0p ps=0u w=750000u l=1.5e+06u
X7 a_687_n44# a_n1761_n132# a_329_n44# w_n1957_n254# sky130_fd_pr__nfet_01v8 ad=0p pd=0u as=0p ps=0u w=750000u l=1.5e+06u
X8 a_1403_n44# a_n1761_n132# a_1045_n44# w_n1957_n254# sky130_fd_pr__nfet_01v8 ad=0p pd=0u as=0p ps=0u w=750000u l=1.5e+06u
X9 a_n1461_n44# a_n1761_n132# a_n1819_n44# w_n1957_n254# sky130_fd_pr__nfet_01v8 ad=0p pd=0u as=0p ps=0u w=750000u l=1.5e+06u
C0 a_n745_n44# a_n387_n44# 0.04fF