* NGSPICE file created from top_pll_v3.ext - technology: sky130A

.subckt sky130_fd_pr__pfet_01v8_4ML9WA VSUBS a_429_n486# w_n2457_n634# a_887_n486#
+ a_n29_n486# a_1345_n486# a_n2261_n512# a_1803_n486# a_n487_n486# a_n945_n486# a_n2319_n486#
+ a_n1403_n486# a_2261_n486# a_n1861_n486#
X0 a_2261_n486# a_n2261_n512# a_1803_n486# w_n2457_n634# sky130_fd_pr__pfet_01v8 ad=0p pd=0u as=0p ps=0u w=4.5e+06u l=2e+06u
X1 a_n945_n486# a_n2261_n512# a_n1403_n486# w_n2457_n634# sky130_fd_pr__pfet_01v8 ad=0p pd=0u as=0p ps=0u w=4.5e+06u l=2e+06u
X2 a_429_n486# a_n2261_n512# a_n29_n486# w_n2457_n634# sky130_fd_pr__pfet_01v8 ad=0p pd=0u as=0p ps=0u w=4.5e+06u l=2e+06u
X3 a_1803_n486# a_n2261_n512# a_1345_n486# w_n2457_n634# sky130_fd_pr__pfet_01v8 ad=0p pd=0u as=0p ps=0u w=4.5e+06u l=2e+06u
X4 a_887_n486# a_n2261_n512# a_429_n486# w_n2457_n634# sky130_fd_pr__pfet_01v8 ad=0p pd=0u as=0p ps=0u w=4.5e+06u l=2e+06u
X5 a_n487_n486# a_n2261_n512# a_n945_n486# w_n2457_n634# sky130_fd_pr__pfet_01v8 ad=0p pd=0u as=0p ps=0u w=4.5e+06u l=2e+06u
X6 a_n1403_n486# a_n2261_n512# a_n1861_n486# w_n2457_n634# sky130_fd_pr__pfet_01v8 ad=0p pd=0u as=0p ps=0u w=4.5e+06u l=2e+06u
X7 a_n1861_n486# a_n2261_n512# a_n2319_n486# w_n2457_n634# sky130_fd_pr__pfet_01v8 ad=0p pd=0u as=0p ps=0u w=4.5e+06u l=2e+06u
X8 a_n29_n486# a_n2261_n512# a_n487_n486# w_n2457_n634# sky130_fd_pr__pfet_01v8 ad=0p pd=0u as=0p ps=0u w=4.5e+06u l=2e+06u
X9 a_1345_n486# a_n2261_n512# a_887_n486# w_n2457_n634# sky130_fd_pr__pfet_01v8 ad=0p pd=0u as=0p ps=0u w=4.5e+06u l=2e+06u
.ends

.subckt sky130_fd_pr__nfet_01v8_YCGG98 a_n1041_n75# a_n561_n75# a_1167_n75# a_303_n75#
+ a_687_n75# a_n849_n75# a_n369_n75# a_975_n75# a_111_n75# a_495_n75# a_n1137_n75#
+ a_n657_n75# a_n177_n75# a_783_n75# a_n945_n75# a_n465_n75# a_207_n75# a_1071_n75#
+ a_591_n75# a_15_n75# a_n753_n75# w_n1367_n285# a_n273_n75# a_879_n75# a_399_n75#
+ a_n1229_n75# a_n81_n75# a_n1167_n101#
X0 a_207_n75# a_n1167_n101# a_111_n75# w_n1367_n285# sky130_fd_pr__nfet_01v8 ad=0p pd=0u as=0p ps=0u w=750000u l=150000u
X1 a_303_n75# a_n1167_n101# a_207_n75# w_n1367_n285# sky130_fd_pr__nfet_01v8 ad=0p pd=0u as=0p ps=0u w=750000u l=150000u
X2 a_399_n75# a_n1167_n101# a_303_n75# w_n1367_n285# sky130_fd_pr__nfet_01v8 ad=0p pd=0u as=0p ps=0u w=750000u l=150000u
X3 a_495_n75# a_n1167_n101# a_399_n75# w_n1367_n285# sky130_fd_pr__nfet_01v8 ad=0p pd=0u as=0p ps=0u w=750000u l=150000u
X4 a_591_n75# a_n1167_n101# a_495_n75# w_n1367_n285# sky130_fd_pr__nfet_01v8 ad=0p pd=0u as=0p ps=0u w=750000u l=150000u
X5 a_783_n75# a_n1167_n101# a_687_n75# w_n1367_n285# sky130_fd_pr__nfet_01v8 ad=0p pd=0u as=0p ps=0u w=750000u l=150000u
X6 a_687_n75# a_n1167_n101# a_591_n75# w_n1367_n285# sky130_fd_pr__nfet_01v8 ad=0p pd=0u as=0p ps=0u w=750000u l=150000u
X7 a_879_n75# a_n1167_n101# a_783_n75# w_n1367_n285# sky130_fd_pr__nfet_01v8 ad=0p pd=0u as=0p ps=0u w=750000u l=150000u
X8 a_975_n75# a_n1167_n101# a_879_n75# w_n1367_n285# sky130_fd_pr__nfet_01v8 ad=0p pd=0u as=0p ps=0u w=750000u l=150000u
X9 a_n1041_n75# a_n1167_n101# a_n1137_n75# w_n1367_n285# sky130_fd_pr__nfet_01v8 ad=0p pd=0u as=0p ps=0u w=750000u l=150000u
X10 a_n1137_n75# a_n1167_n101# a_n1229_n75# w_n1367_n285# sky130_fd_pr__nfet_01v8 ad=0p pd=0u as=0p ps=0u w=750000u l=150000u
X11 a_n561_n75# a_n1167_n101# a_n657_n75# w_n1367_n285# sky130_fd_pr__nfet_01v8 ad=0p pd=0u as=0p ps=0u w=750000u l=150000u
X12 a_1071_n75# a_n1167_n101# a_975_n75# w_n1367_n285# sky130_fd_pr__nfet_01v8 ad=0p pd=0u as=0p ps=0u w=750000u l=150000u
X13 a_n945_n75# a_n1167_n101# a_n1041_n75# w_n1367_n285# sky130_fd_pr__nfet_01v8 ad=0p pd=0u as=0p ps=0u w=750000u l=150000u
X14 a_n753_n75# a_n1167_n101# a_n849_n75# w_n1367_n285# sky130_fd_pr__nfet_01v8 ad=0p pd=0u as=0p ps=0u w=750000u l=150000u
X15 a_n657_n75# a_n1167_n101# a_n753_n75# w_n1367_n285# sky130_fd_pr__nfet_01v8 ad=0p pd=0u as=0p ps=0u w=750000u l=150000u
X16 a_n465_n75# a_n1167_n101# a_n561_n75# w_n1367_n285# sky130_fd_pr__nfet_01v8 ad=0p pd=0u as=0p ps=0u w=750000u l=150000u
X17 a_n369_n75# a_n1167_n101# a_n465_n75# w_n1367_n285# sky130_fd_pr__nfet_01v8 ad=0p pd=0u as=0p ps=0u w=750000u l=150000u
X18 a_1167_n75# a_n1167_n101# a_1071_n75# w_n1367_n285# sky130_fd_pr__nfet_01v8 ad=0p pd=0u as=0p ps=0u w=750000u l=150000u
X19 a_n849_n75# a_n1167_n101# a_n945_n75# w_n1367_n285# sky130_fd_pr__nfet_01v8 ad=0p pd=0u as=0p ps=0u w=750000u l=150000u
X20 a_15_n75# a_n1167_n101# a_n81_n75# w_n1367_n285# sky130_fd_pr__nfet_01v8 ad=0p pd=0u as=0p ps=0u w=750000u l=150000u
X21 a_n81_n75# a_n1167_n101# a_n177_n75# w_n1367_n285# sky130_fd_pr__nfet_01v8 ad=0p pd=0u as=0p ps=0u w=750000u l=150000u
X22 a_111_n75# a_n1167_n101# a_15_n75# w_n1367_n285# sky130_fd_pr__nfet_01v8 ad=0p pd=0u as=0p ps=0u w=750000u l=150000u
X23 a_n273_n75# a_n1167_n101# a_n369_n75# w_n1367_n285# sky130_fd_pr__nfet_01v8 ad=0p pd=0u as=0p ps=0u w=750000u l=150000u
X24 a_n177_n75# a_n1167_n101# a_n273_n75# w_n1367_n285# sky130_fd_pr__nfet_01v8 ad=0p pd=0u as=0p ps=0u w=750000u l=150000u
.ends

.subckt sky130_fd_pr__nfet_01v8_MUHGM9 a_33_n101# a_n129_n75# a_735_n75# a_255_n75#
+ a_n417_n75# a_n989_n75# a_63_n75# a_543_n75# a_n705_n75# a_n225_n75# a_n33_n75#
+ a_831_n75# a_351_n75# a_n927_n101# a_n513_n75# a_n897_n75# w_n1127_n285# a_639_n75#
+ a_159_n75# a_n801_n75# a_n321_n75# a_927_n75# a_447_n75# a_n609_n75#
X0 a_63_n75# a_33_n101# a_n33_n75# w_n1127_n285# sky130_fd_pr__nfet_01v8 ad=0p pd=0u as=0p ps=0u w=750000u l=150000u
X1 a_927_n75# a_33_n101# a_831_n75# w_n1127_n285# sky130_fd_pr__nfet_01v8 ad=0p pd=0u as=0p ps=0u w=750000u l=150000u
X2 a_n33_n75# a_n927_n101# a_n129_n75# w_n1127_n285# sky130_fd_pr__nfet_01v8 ad=0p pd=0u as=0p ps=0u w=750000u l=150000u
X3 a_159_n75# a_33_n101# a_63_n75# w_n1127_n285# sky130_fd_pr__nfet_01v8 ad=0p pd=0u as=0p ps=0u w=750000u l=150000u
X4 a_255_n75# a_33_n101# a_159_n75# w_n1127_n285# sky130_fd_pr__nfet_01v8 ad=0p pd=0u as=0p ps=0u w=750000u l=150000u
X5 a_351_n75# a_33_n101# a_255_n75# w_n1127_n285# sky130_fd_pr__nfet_01v8 ad=0p pd=0u as=0p ps=0u w=750000u l=150000u
X6 a_447_n75# a_33_n101# a_351_n75# w_n1127_n285# sky130_fd_pr__nfet_01v8 ad=0p pd=0u as=0p ps=0u w=750000u l=150000u
X7 a_543_n75# a_33_n101# a_447_n75# w_n1127_n285# sky130_fd_pr__nfet_01v8 ad=0p pd=0u as=0p ps=0u w=750000u l=150000u
X8 a_735_n75# a_33_n101# a_639_n75# w_n1127_n285# sky130_fd_pr__nfet_01v8 ad=0p pd=0u as=0p ps=0u w=750000u l=150000u
X9 a_831_n75# a_33_n101# a_735_n75# w_n1127_n285# sky130_fd_pr__nfet_01v8 ad=0p pd=0u as=0p ps=0u w=750000u l=150000u
X10 a_639_n75# a_33_n101# a_543_n75# w_n1127_n285# sky130_fd_pr__nfet_01v8 ad=0p pd=0u as=0p ps=0u w=750000u l=150000u
X11 a_n321_n75# a_n927_n101# a_n417_n75# w_n1127_n285# sky130_fd_pr__nfet_01v8 ad=0p pd=0u as=0p ps=0u w=750000u l=150000u
X12 a_n801_n75# a_n927_n101# a_n897_n75# w_n1127_n285# sky130_fd_pr__nfet_01v8 ad=0p pd=0u as=0p ps=0u w=750000u l=150000u
X13 a_n705_n75# a_n927_n101# a_n801_n75# w_n1127_n285# sky130_fd_pr__nfet_01v8 ad=0p pd=0u as=0p ps=0u w=750000u l=150000u
X14 a_n513_n75# a_n927_n101# a_n609_n75# w_n1127_n285# sky130_fd_pr__nfet_01v8 ad=0p pd=0u as=0p ps=0u w=750000u l=150000u
X15 a_n417_n75# a_n927_n101# a_n513_n75# w_n1127_n285# sky130_fd_pr__nfet_01v8 ad=0p pd=0u as=0p ps=0u w=750000u l=150000u
X16 a_n225_n75# a_n927_n101# a_n321_n75# w_n1127_n285# sky130_fd_pr__nfet_01v8 ad=0p pd=0u as=0p ps=0u w=750000u l=150000u
X17 a_n129_n75# a_n927_n101# a_n225_n75# w_n1127_n285# sky130_fd_pr__nfet_01v8 ad=0p pd=0u as=0p ps=0u w=750000u l=150000u
X18 a_n897_n75# a_n927_n101# a_n989_n75# w_n1127_n285# sky130_fd_pr__nfet_01v8 ad=0p pd=0u as=0p ps=0u w=750000u l=150000u
X19 a_n609_n75# a_n927_n101# a_n705_n75# w_n1127_n285# sky130_fd_pr__nfet_01v8 ad=0p pd=0u as=0p ps=0u w=750000u l=150000u
.ends

.subckt sky130_fd_pr__pfet_01v8_NKZXKB VSUBS a_33_n247# a_n801_n150# a_n417_n150#
+ a_351_n150# a_255_n150# a_n705_n150# a_n609_n150# a_159_n150# a_543_n150# a_447_n150#
+ a_831_n150# a_n897_n150# a_n33_n150# a_735_n150# a_n927_n247# a_639_n150# a_n321_n150#
+ a_927_n150# a_n225_n150# a_63_n150# a_n989_n150# a_n513_n150# a_n129_n150# w_n1127_n369#
X0 a_n513_n150# a_n927_n247# a_n609_n150# w_n1127_n369# sky130_fd_pr__pfet_01v8 ad=0p pd=0u as=0p ps=0u w=1.5e+06u l=150000u
X1 a_63_n150# a_33_n247# a_n33_n150# w_n1127_n369# sky130_fd_pr__pfet_01v8 ad=0p pd=0u as=0p ps=0u w=1.5e+06u l=150000u
X2 a_735_n150# a_33_n247# a_639_n150# w_n1127_n369# sky130_fd_pr__pfet_01v8 ad=0p pd=0u as=0p ps=0u w=1.5e+06u l=150000u
X3 a_n801_n150# a_n927_n247# a_n897_n150# w_n1127_n369# sky130_fd_pr__pfet_01v8 ad=0p pd=0u as=0p ps=0u w=1.5e+06u l=150000u
X4 a_n129_n150# a_n927_n247# a_n225_n150# w_n1127_n369# sky130_fd_pr__pfet_01v8 ad=0p pd=0u as=0p ps=0u w=1.5e+06u l=150000u
X5 a_n417_n150# a_n927_n247# a_n513_n150# w_n1127_n369# sky130_fd_pr__pfet_01v8 ad=0p pd=0u as=0p ps=0u w=1.5e+06u l=150000u
X6 a_639_n150# a_33_n247# a_543_n150# w_n1127_n369# sky130_fd_pr__pfet_01v8 ad=0p pd=0u as=0p ps=0u w=1.5e+06u l=150000u
X7 a_n705_n150# a_n927_n247# a_n801_n150# w_n1127_n369# sky130_fd_pr__pfet_01v8 ad=0p pd=0u as=0p ps=0u w=1.5e+06u l=150000u
X8 a_n33_n150# a_n927_n247# a_n129_n150# w_n1127_n369# sky130_fd_pr__pfet_01v8 ad=0p pd=0u as=0p ps=0u w=1.5e+06u l=150000u
X9 a_351_n150# a_33_n247# a_255_n150# w_n1127_n369# sky130_fd_pr__pfet_01v8 ad=0p pd=0u as=0p ps=0u w=1.5e+06u l=150000u
X10 a_n609_n150# a_n927_n247# a_n705_n150# w_n1127_n369# sky130_fd_pr__pfet_01v8 ad=0p pd=0u as=0p ps=0u w=1.5e+06u l=150000u
X11 a_n897_n150# a_n927_n247# a_n989_n150# w_n1127_n369# sky130_fd_pr__pfet_01v8 ad=0p pd=0u as=0p ps=0u w=1.5e+06u l=150000u
X12 a_927_n150# a_33_n247# a_831_n150# w_n1127_n369# sky130_fd_pr__pfet_01v8 ad=0p pd=0u as=0p ps=0u w=1.5e+06u l=150000u
X13 a_255_n150# a_33_n247# a_159_n150# w_n1127_n369# sky130_fd_pr__pfet_01v8 ad=0p pd=0u as=0p ps=0u w=1.5e+06u l=150000u
X14 a_n321_n150# a_n927_n247# a_n417_n150# w_n1127_n369# sky130_fd_pr__pfet_01v8 ad=0p pd=0u as=0p ps=0u w=1.5e+06u l=150000u
X15 a_543_n150# a_33_n247# a_447_n150# w_n1127_n369# sky130_fd_pr__pfet_01v8 ad=0p pd=0u as=0p ps=0u w=1.5e+06u l=150000u
X16 a_831_n150# a_33_n247# a_735_n150# w_n1127_n369# sky130_fd_pr__pfet_01v8 ad=0p pd=0u as=0p ps=0u w=1.5e+06u l=150000u
X17 a_159_n150# a_33_n247# a_63_n150# w_n1127_n369# sky130_fd_pr__pfet_01v8 ad=0p pd=0u as=0p ps=0u w=1.5e+06u l=150000u
X18 a_n225_n150# a_n927_n247# a_n321_n150# w_n1127_n369# sky130_fd_pr__pfet_01v8 ad=0p pd=0u as=0p ps=0u w=1.5e+06u l=150000u
X19 a_447_n150# a_33_n247# a_351_n150# w_n1127_n369# sky130_fd_pr__pfet_01v8 ad=0p pd=0u as=0p ps=0u w=1.5e+06u l=150000u
.ends

.subckt sky130_fd_pr__nfet_01v8_8GRULZ a_n1761_n132# a_1045_n44# a_n1461_n44# a_n1103_n44#
+ a_n29_n44# a_n387_n44# a_1761_n44# a_n1819_n44# a_1403_n44# a_687_n44# w_n1957_n254#
+ a_329_n44# a_n745_n44#
X0 a_329_n44# a_n1761_n132# a_n29_n44# w_n1957_n254# sky130_fd_pr__nfet_01v8 ad=0p pd=0u as=0p ps=0u w=750000u l=1.5e+06u
X1 a_1761_n44# a_n1761_n132# a_1403_n44# w_n1957_n254# sky130_fd_pr__nfet_01v8 ad=0p pd=0u as=0p ps=0u w=750000u l=1.5e+06u
X2 a_n745_n44# a_n1761_n132# a_n1103_n44# w_n1957_n254# sky130_fd_pr__nfet_01v8 ad=0p pd=0u as=0p ps=0u w=750000u l=1.5e+06u
X3 a_1045_n44# a_n1761_n132# a_687_n44# w_n1957_n254# sky130_fd_pr__nfet_01v8 ad=0p pd=0u as=0p ps=0u w=750000u l=1.5e+06u
X4 a_n29_n44# a_n1761_n132# a_n387_n44# w_n1957_n254# sky130_fd_pr__nfet_01v8 ad=0p pd=0u as=0p ps=0u w=750000u l=1.5e+06u
X5 a_n1103_n44# a_n1761_n132# a_n1461_n44# w_n1957_n254# sky130_fd_pr__nfet_01v8 ad=0p pd=0u as=0p ps=0u w=750000u l=1.5e+06u
X6 a_n387_n44# a_n1761_n132# a_n745_n44# w_n1957_n254# sky130_fd_pr__nfet_01v8 ad=0p pd=0u as=0p ps=0u w=750000u l=1.5e+06u
X7 a_687_n44# a_n1761_n132# a_329_n44# w_n1957_n254# sky130_fd_pr__nfet_01v8 ad=0p pd=0u as=0p ps=0u w=750000u l=1.5e+06u
X8 a_1403_n44# a_n1761_n132# a_1045_n44# w_n1957_n254# sky130_fd_pr__nfet_01v8 ad=0p pd=0u as=0p ps=0u w=750000u l=1.5e+06u
X9 a_n1461_n44# a_n1761_n132# a_n1819_n44# w_n1957_n254# sky130_fd_pr__nfet_01v8 ad=0p pd=0u as=0p ps=0u w=750000u l=1.5e+06u
.ends

.subckt sky130_fd_pr__pfet_01v8_ND88ZC VSUBS a_303_n150# a_n753_n150# a_n369_n150#
+ w_n1367_n369# a_207_n150# a_n657_n150# a_591_n150# a_n1229_n150# a_n945_n150# a_495_n150#
+ a_n1041_n150# a_n849_n150# a_n81_n150# a_399_n150# a_783_n150# a_1071_n150# a_687_n150#
+ a_975_n150# a_n1137_n150# a_n273_n150# a_111_n150# a_879_n150# a_n177_n150# a_n561_n150#
+ a_15_n150# a_1167_n150# a_n1167_n247# a_n465_n150#
X0 a_n1137_n150# a_n1167_n247# a_n1229_n150# w_n1367_n369# sky130_fd_pr__pfet_01v8 ad=0p pd=0u as=0p ps=0u w=1.5e+06u l=150000u
X1 a_495_n150# a_n1167_n247# a_399_n150# w_n1367_n369# sky130_fd_pr__pfet_01v8 ad=0p pd=0u as=0p ps=0u w=1.5e+06u l=150000u
X2 a_n561_n150# a_n1167_n247# a_n657_n150# w_n1367_n369# sky130_fd_pr__pfet_01v8 ad=0p pd=0u as=0p ps=0u w=1.5e+06u l=150000u
X3 a_111_n150# a_n1167_n247# a_15_n150# w_n1367_n369# sky130_fd_pr__pfet_01v8 ad=0p pd=0u as=0p ps=0u w=1.5e+06u l=150000u
X4 a_783_n150# a_n1167_n247# a_687_n150# w_n1367_n369# sky130_fd_pr__pfet_01v8 ad=0p pd=0u as=0p ps=0u w=1.5e+06u l=150000u
X5 a_1071_n150# a_n1167_n247# a_975_n150# w_n1367_n369# sky130_fd_pr__pfet_01v8 ad=0p pd=0u as=0p ps=0u w=1.5e+06u l=150000u
X6 a_399_n150# a_n1167_n247# a_303_n150# w_n1367_n369# sky130_fd_pr__pfet_01v8 ad=0p pd=0u as=0p ps=0u w=1.5e+06u l=150000u
X7 a_n465_n150# a_n1167_n247# a_n561_n150# w_n1367_n369# sky130_fd_pr__pfet_01v8 ad=0p pd=0u as=0p ps=0u w=1.5e+06u l=150000u
X8 a_687_n150# a_n1167_n247# a_591_n150# w_n1367_n369# sky130_fd_pr__pfet_01v8 ad=0p pd=0u as=0p ps=0u w=1.5e+06u l=150000u
X9 a_n753_n150# a_n1167_n247# a_n849_n150# w_n1367_n369# sky130_fd_pr__pfet_01v8 ad=0p pd=0u as=0p ps=0u w=1.5e+06u l=150000u
X10 a_975_n150# a_n1167_n247# a_879_n150# w_n1367_n369# sky130_fd_pr__pfet_01v8 ad=0p pd=0u as=0p ps=0u w=1.5e+06u l=150000u
X11 a_n81_n150# a_n1167_n247# a_n177_n150# w_n1367_n369# sky130_fd_pr__pfet_01v8 ad=0p pd=0u as=0p ps=0u w=1.5e+06u l=150000u
X12 a_15_n150# a_n1167_n247# a_n81_n150# w_n1367_n369# sky130_fd_pr__pfet_01v8 ad=0p pd=0u as=0p ps=0u w=1.5e+06u l=150000u
X13 a_n1041_n150# a_n1167_n247# a_n1137_n150# w_n1367_n369# sky130_fd_pr__pfet_01v8 ad=0p pd=0u as=0p ps=0u w=1.5e+06u l=150000u
X14 a_n369_n150# a_n1167_n247# a_n465_n150# w_n1367_n369# sky130_fd_pr__pfet_01v8 ad=0p pd=0u as=0p ps=0u w=1.5e+06u l=150000u
X15 a_n657_n150# a_n1167_n247# a_n753_n150# w_n1367_n369# sky130_fd_pr__pfet_01v8 ad=0p pd=0u as=0p ps=0u w=1.5e+06u l=150000u
X16 a_879_n150# a_n1167_n247# a_783_n150# w_n1367_n369# sky130_fd_pr__pfet_01v8 ad=0p pd=0u as=0p ps=0u w=1.5e+06u l=150000u
X17 a_n945_n150# a_n1167_n247# a_n1041_n150# w_n1367_n369# sky130_fd_pr__pfet_01v8 ad=0p pd=0u as=0p ps=0u w=1.5e+06u l=150000u
X18 a_1167_n150# a_n1167_n247# a_1071_n150# w_n1367_n369# sky130_fd_pr__pfet_01v8 ad=0p pd=0u as=0p ps=0u w=1.5e+06u l=150000u
X19 a_303_n150# a_n1167_n247# a_207_n150# w_n1367_n369# sky130_fd_pr__pfet_01v8 ad=0p pd=0u as=0p ps=0u w=1.5e+06u l=150000u
X20 a_n273_n150# a_n1167_n247# a_n369_n150# w_n1367_n369# sky130_fd_pr__pfet_01v8 ad=0p pd=0u as=0p ps=0u w=1.5e+06u l=150000u
X21 a_591_n150# a_n1167_n247# a_495_n150# w_n1367_n369# sky130_fd_pr__pfet_01v8 ad=0p pd=0u as=0p ps=0u w=1.5e+06u l=150000u
X22 a_n849_n150# a_n1167_n247# a_n945_n150# w_n1367_n369# sky130_fd_pr__pfet_01v8 ad=0p pd=0u as=0p ps=0u w=1.5e+06u l=150000u
X23 a_207_n150# a_n1167_n247# a_111_n150# w_n1367_n369# sky130_fd_pr__pfet_01v8 ad=0p pd=0u as=0p ps=0u w=1.5e+06u l=150000u
X24 a_n177_n150# a_n1167_n247# a_n273_n150# w_n1367_n369# sky130_fd_pr__pfet_01v8 ad=0p pd=0u as=0p ps=0u w=1.5e+06u l=150000u
.ends

.subckt charge_pump vdd Down out iref pswitch nDown biasp Up nswitch vss w_6648_570#
+ nUp
Xsky130_fd_pr__pfet_01v8_4ML9WA_0 vss pswitch vdd pswitch pswitch pswitch nUp pswitch
+ pswitch pswitch pswitch pswitch pswitch pswitch sky130_fd_pr__pfet_01v8_4ML9WA
Xsky130_fd_pr__nfet_01v8_YCGG98_0 vss out out vss vss vss out out vss vss out vss
+ out out out vss out vss out out out vss vss vss out vss vss nswitch sky130_fd_pr__nfet_01v8_YCGG98
Xsky130_fd_pr__nfet_01v8_YCGG98_1 iref vss vss iref iref iref vss vss iref iref vss
+ iref vss vss vss iref vss iref vss vss vss vss iref iref vss iref iref iref sky130_fd_pr__nfet_01v8_YCGG98
Xsky130_fd_pr__nfet_01v8_YCGG98_2 biasp vss vss biasp biasp biasp vss vss biasp biasp
+ vss biasp vss vss vss biasp vss biasp vss vss vss vss biasp biasp vss biasp biasp
+ iref sky130_fd_pr__nfet_01v8_YCGG98
Xsky130_fd_pr__nfet_01v8_MUHGM9_0 nDown iref nswitch vss nswitch nswitch vss nswitch
+ iref nswitch nswitch vss nswitch Down iref iref vss vss nswitch nswitch iref nswitch
+ vss nswitch sky130_fd_pr__nfet_01v8_MUHGM9
Xsky130_fd_pr__pfet_01v8_NKZXKB_0 vss Up pswitch pswitch pswitch vdd biasp pswitch
+ pswitch pswitch vdd vdd biasp pswitch pswitch nUp vdd biasp pswitch pswitch vdd
+ pswitch biasp biasp vdd sky130_fd_pr__pfet_01v8_NKZXKB
Xsky130_fd_pr__nfet_01v8_8GRULZ_0 Down nswitch nswitch nswitch nswitch nswitch nswitch
+ nswitch nswitch nswitch vss nswitch nswitch sky130_fd_pr__nfet_01v8_8GRULZ
Xsky130_fd_pr__pfet_01v8_ND88ZC_0 vss vdd out out vdd out vdd out vdd out vdd vdd
+ vdd vdd out out vdd vdd out out vdd vdd vdd out out out out pswitch vdd sky130_fd_pr__pfet_01v8_ND88ZC
Xsky130_fd_pr__pfet_01v8_ND88ZC_1 vss biasp vdd vdd vdd vdd biasp vdd biasp vdd biasp
+ biasp biasp biasp vdd vdd biasp biasp vdd vdd biasp biasp biasp vdd vdd vdd vdd
+ biasp biasp sky130_fd_pr__pfet_01v8_ND88ZC
.ends

.subckt sky130_fd_pr__cap_mim_m3_1_MACBVW VSUBS m3_n2650_n13200# m3_n7969_n2600# m3_7988_8000#
+ m3_2669_n7900# m3_n13288_n2600# m3_n2650_2700# m3_2669_2700# m3_n13288_n13200# m3_n7969_n13200#
+ m3_n13288_8000# m3_7988_2700# m3_n2650_n7900# m3_7988_n7900# m3_2669_n13200# m3_n7969_8000#
+ m3_n13288_2700# m3_n7969_n7900# m3_n13288_n7900# m3_2669_n2600# m3_n7969_2700# m3_7988_n13200#
+ c1_n13188_n13100# m3_7988_n2600# m3_n2650_n2600# m3_n2650_8000# m3_2669_8000#
X0 c1_n13188_n13100# m3_2669_n13200# sky130_fd_pr__cap_mim_m3_1 l=2.5e+07u w=2.5e+07u
X1 c1_n13188_n13100# m3_n2650_8000# sky130_fd_pr__cap_mim_m3_1 l=2.5e+07u w=2.5e+07u
X2 c1_n13188_n13100# m3_2669_n7900# sky130_fd_pr__cap_mim_m3_1 l=2.5e+07u w=2.5e+07u
X3 c1_n13188_n13100# m3_n13288_n13200# sky130_fd_pr__cap_mim_m3_1 l=2.5e+07u w=2.5e+07u
X4 c1_n13188_n13100# m3_n7969_2700# sky130_fd_pr__cap_mim_m3_1 l=2.5e+07u w=2.5e+07u
X5 c1_n13188_n13100# m3_n13288_8000# sky130_fd_pr__cap_mim_m3_1 l=2.5e+07u w=2.5e+07u
X6 c1_n13188_n13100# m3_2669_8000# sky130_fd_pr__cap_mim_m3_1 l=2.5e+07u w=2.5e+07u
X7 c1_n13188_n13100# m3_7988_2700# sky130_fd_pr__cap_mim_m3_1 l=2.5e+07u w=2.5e+07u
X8 c1_n13188_n13100# m3_2669_n2600# sky130_fd_pr__cap_mim_m3_1 l=2.5e+07u w=2.5e+07u
X9 c1_n13188_n13100# m3_7988_n13200# sky130_fd_pr__cap_mim_m3_1 l=2.5e+07u w=2.5e+07u
X10 c1_n13188_n13100# m3_n7969_8000# sky130_fd_pr__cap_mim_m3_1 l=2.5e+07u w=2.5e+07u
X11 c1_n13188_n13100# m3_7988_n7900# sky130_fd_pr__cap_mim_m3_1 l=2.5e+07u w=2.5e+07u
X12 c1_n13188_n13100# m3_n7969_n13200# sky130_fd_pr__cap_mim_m3_1 l=2.5e+07u w=2.5e+07u
X13 c1_n13188_n13100# m3_7988_8000# sky130_fd_pr__cap_mim_m3_1 l=2.5e+07u w=2.5e+07u
X14 c1_n13188_n13100# m3_n13288_n7900# sky130_fd_pr__cap_mim_m3_1 l=2.5e+07u w=2.5e+07u
X15 c1_n13188_n13100# m3_n7969_n7900# sky130_fd_pr__cap_mim_m3_1 l=2.5e+07u w=2.5e+07u
X16 c1_n13188_n13100# m3_n2650_n7900# sky130_fd_pr__cap_mim_m3_1 l=2.5e+07u w=2.5e+07u
X17 c1_n13188_n13100# m3_n2650_n13200# sky130_fd_pr__cap_mim_m3_1 l=2.5e+07u w=2.5e+07u
X18 c1_n13188_n13100# m3_n2650_2700# sky130_fd_pr__cap_mim_m3_1 l=2.5e+07u w=2.5e+07u
X19 c1_n13188_n13100# m3_7988_n2600# sky130_fd_pr__cap_mim_m3_1 l=2.5e+07u w=2.5e+07u
X20 c1_n13188_n13100# m3_n13288_2700# sky130_fd_pr__cap_mim_m3_1 l=2.5e+07u w=2.5e+07u
X21 c1_n13188_n13100# m3_n13288_n2600# sky130_fd_pr__cap_mim_m3_1 l=2.5e+07u w=2.5e+07u
X22 c1_n13188_n13100# m3_n7969_n2600# sky130_fd_pr__cap_mim_m3_1 l=2.5e+07u w=2.5e+07u
X23 c1_n13188_n13100# m3_n2650_n2600# sky130_fd_pr__cap_mim_m3_1 l=2.5e+07u w=2.5e+07u
X24 c1_n13188_n13100# m3_2669_2700# sky130_fd_pr__cap_mim_m3_1 l=2.5e+07u w=2.5e+07u
.ends

.subckt cap1_loop_filter VSUBS in out
Xsky130_fd_pr__cap_mim_m3_1_MACBVW_0 VSUBS out out out out out out out out out out
+ out out out out out out out out out out out in out out out out sky130_fd_pr__cap_mim_m3_1_MACBVW
.ends

.subckt sky130_fd_pr__cap_mim_m3_1_WHJTNJ VSUBS m3_n4309_50# m3_n4309_n4250# c1_n4209_n4150#
+ c1_110_n4150# m3_10_n4250#
X0 c1_n4209_n4150# m3_n4309_n4250# sky130_fd_pr__cap_mim_m3_1 l=2e+07u w=2e+07u
X1 c1_110_n4150# m3_10_n4250# sky130_fd_pr__cap_mim_m3_1 l=2e+07u w=2e+07u
X2 c1_n4209_n4150# m3_n4309_50# sky130_fd_pr__cap_mim_m3_1 l=2e+07u w=2e+07u
X3 c1_110_n4150# m3_10_n4250# sky130_fd_pr__cap_mim_m3_1 l=2e+07u w=2e+07u
.ends

.subckt cap3_loop_filter VSUBS in out
Xsky130_fd_pr__cap_mim_m3_1_WHJTNJ_0 VSUBS out out in in out sky130_fd_pr__cap_mim_m3_1_WHJTNJ
.ends

.subckt sky130_fd_pr__cap_mim_m3_1_W3JTNJ VSUBS m3_n6469_n2100# c1_n6369_n6300# m3_2169_n6400#
+ m3_n2150_n6400# c1_2269_n6300# m3_n6469_2200# m3_n2150_n2100# c1_n2050_n6300# m3_n2150_2200#
+ m3_n6469_n6400#
X0 c1_2269_n6300# m3_2169_n6400# sky130_fd_pr__cap_mim_m3_1 l=2e+07u w=2e+07u
X1 c1_2269_n6300# m3_2169_n6400# sky130_fd_pr__cap_mim_m3_1 l=2e+07u w=2e+07u
X2 c1_n2050_n6300# m3_n2150_2200# sky130_fd_pr__cap_mim_m3_1 l=2e+07u w=2e+07u
X3 c1_n6369_n6300# m3_n6469_n2100# sky130_fd_pr__cap_mim_m3_1 l=2e+07u w=2e+07u
X4 c1_2269_n6300# m3_2169_n6400# sky130_fd_pr__cap_mim_m3_1 l=2e+07u w=2e+07u
X5 c1_n6369_n6300# m3_n6469_n6400# sky130_fd_pr__cap_mim_m3_1 l=2e+07u w=2e+07u
X6 c1_n2050_n6300# m3_n2150_n2100# sky130_fd_pr__cap_mim_m3_1 l=2e+07u w=2e+07u
X7 c1_n2050_n6300# m3_n2150_n6400# sky130_fd_pr__cap_mim_m3_1 l=2e+07u w=2e+07u
X8 c1_n6369_n6300# m3_n6469_2200# sky130_fd_pr__cap_mim_m3_1 l=2e+07u w=2e+07u
.ends

.subckt cap2_loop_filter VSUBS in out
Xsky130_fd_pr__cap_mim_m3_1_W3JTNJ_0 VSUBS out in out out in out out in out out sky130_fd_pr__cap_mim_m3_1_W3JTNJ
.ends

.subckt sky130_fd_pr__nfet_01v8_U2JGXT w_n226_n510# a_n118_n388# a_n88_n300# a_30_n300#
X0 a_30_n300# a_n118_n388# a_n88_n300# w_n226_n510# sky130_fd_pr__nfet_01v8 ad=0p pd=0u as=0p ps=0u w=3e+06u l=300000u
.ends

.subckt sky130_fd_pr__res_high_po_5p73_X44RQA a_n573_2292# w_n739_n2890# a_n573_n2724#
X0 a_n573_n2724# a_n573_2292# w_n739_n2890# sky130_fd_pr__res_high_po_5p73 l=2.292e+07u
.ends

.subckt res_loop_filter vss out in
Xsky130_fd_pr__res_high_po_5p73_X44RQA_0 in vss out sky130_fd_pr__res_high_po_5p73_X44RQA
.ends

.subckt loop_filter_v2 vc_pex D0_cap in vss
Xcap1_loop_filter_0 vss vc_pex vss cap1_loop_filter
Xcap3_loop_filter_0 vss cap3_loop_filter_0/in vss cap3_loop_filter
Xcap2_loop_filter_0 vss in vss cap2_loop_filter
Xsky130_fd_pr__nfet_01v8_U2JGXT_0 vss D0_cap in cap3_loop_filter_0/in sky130_fd_pr__nfet_01v8_U2JGXT
Xres_loop_filter_0 vss res_loop_filter_2/out in res_loop_filter
Xres_loop_filter_1 vss res_loop_filter_2/out vc_pex res_loop_filter
Xres_loop_filter_2 vss res_loop_filter_2/out vc_pex res_loop_filter
.ends

.subckt sky130_fd_pr__pfet_01v8_4798MH VSUBS w_n311_n338# a_81_n156# a_111_n125# a_15_n125#
+ a_n173_n125# a_n111_n156# a_n15_n156# a_n81_n125#
X0 a_n81_n125# a_n111_n156# a_n173_n125# w_n311_n338# sky130_fd_pr__pfet_01v8 ad=0p pd=0u as=0p ps=0u w=1.25e+06u l=150000u
X1 a_15_n125# a_n15_n156# a_n81_n125# w_n311_n338# sky130_fd_pr__pfet_01v8 ad=0p pd=0u as=0p ps=0u w=1.25e+06u l=150000u
X2 a_111_n125# a_81_n156# a_15_n125# w_n311_n338# sky130_fd_pr__pfet_01v8 ad=0p pd=0u as=0p ps=0u w=1.25e+06u l=150000u
.ends

.subckt sky130_fd_pr__nfet_01v8_BHR94T a_n15_n151# w_n311_n335# a_81_n151# a_111_n125#
+ a_15_n125# a_n173_n125# a_n111_n151# a_n81_n125#
X0 a_111_n125# a_81_n151# a_15_n125# w_n311_n335# sky130_fd_pr__nfet_01v8 ad=0p pd=0u as=0p ps=0u w=1.25e+06u l=150000u
X1 a_n81_n125# a_n111_n151# a_n173_n125# w_n311_n335# sky130_fd_pr__nfet_01v8 ad=0p pd=0u as=0p ps=0u w=1.25e+06u l=150000u
X2 a_15_n125# a_n15_n151# a_n81_n125# w_n311_n335# sky130_fd_pr__nfet_01v8 ad=0p pd=0u as=0p ps=0u w=1.25e+06u l=150000u
.ends

.subckt trans_gate m1_187_n605# m1_45_n513# vss vdd
Xsky130_fd_pr__pfet_01v8_4798MH_0 vss vdd vss m1_187_n605# m1_45_n513# m1_45_n513#
+ vss vss m1_187_n605# sky130_fd_pr__pfet_01v8_4798MH
Xsky130_fd_pr__nfet_01v8_BHR94T_0 vdd vss vdd m1_187_n605# m1_45_n513# m1_45_n513#
+ vdd m1_187_n605# sky130_fd_pr__nfet_01v8_BHR94T
.ends

.subckt sky130_fd_pr__pfet_01v8_7KT7MH VSUBS a_n111_n186# a_111_n125# a_15_n125# a_n173_n125#
+ w_n311_n344# a_n81_n125#
X0 a_n81_n125# a_n111_n186# a_n173_n125# w_n311_n344# sky130_fd_pr__pfet_01v8 ad=0p pd=0u as=0p ps=0u w=1.25e+06u l=150000u
X1 a_15_n125# a_n111_n186# a_n81_n125# w_n311_n344# sky130_fd_pr__pfet_01v8 ad=0p pd=0u as=0p ps=0u w=1.25e+06u l=150000u
X2 a_111_n125# a_n111_n186# a_15_n125# w_n311_n344# sky130_fd_pr__pfet_01v8 ad=0p pd=0u as=0p ps=0u w=1.25e+06u l=150000u
.ends

.subckt sky130_fd_pr__nfet_01v8_2BS6QM w_n311_n335# a_111_n125# a_15_n125# a_n173_n125#
+ a_n111_n151# a_n81_n125#
X0 a_111_n125# a_n111_n151# a_15_n125# w_n311_n335# sky130_fd_pr__nfet_01v8 ad=0p pd=0u as=0p ps=0u w=1.25e+06u l=150000u
X1 a_n81_n125# a_n111_n151# a_n173_n125# w_n311_n335# sky130_fd_pr__nfet_01v8 ad=0p pd=0u as=0p ps=0u w=1.25e+06u l=150000u
X2 a_15_n125# a_n111_n151# a_n81_n125# w_n311_n335# sky130_fd_pr__nfet_01v8 ad=0p pd=0u as=0p ps=0u w=1.25e+06u l=150000u
.ends

.subckt inverter_cp_x1 in vss out vdd
Xsky130_fd_pr__pfet_01v8_7KT7MH_0 vss in out vdd vdd vdd out sky130_fd_pr__pfet_01v8_7KT7MH
Xsky130_fd_pr__nfet_01v8_2BS6QM_0 vss out vss vss in out sky130_fd_pr__nfet_01v8_2BS6QM
.ends

.subckt clock_inverter vss CLK vdd CLK_d nCLK_d
Xtrans_gate_0 nCLK_d inverter_cp_x1_0/out vss vdd trans_gate
Xinverter_cp_x1_0 CLK vss inverter_cp_x1_0/out vdd inverter_cp_x1
Xinverter_cp_x1_1 CLK vss inverter_cp_x1_2/in vdd inverter_cp_x1
Xinverter_cp_x1_2 inverter_cp_x1_2/in vss CLK_d vdd inverter_cp_x1
.ends

.subckt sky130_fd_pr__pfet_01v8_MJG8BZ VSUBS a_n125_n95# a_63_n95# w_n263_n314# a_n33_n95#
+ a_n63_n192#
X0 a_63_n95# a_n63_n192# a_n33_n95# w_n263_n314# sky130_fd_pr__pfet_01v8 ad=0p pd=0u as=0p ps=0u w=950000u l=150000u
X1 a_n33_n95# a_n63_n192# a_n125_n95# w_n263_n314# sky130_fd_pr__pfet_01v8 ad=0p pd=0u as=0p ps=0u w=950000u l=150000u
.ends

.subckt sky130_fd_pr__nfet_01v8_2BS854 w_n311_n335# a_n129_n213# a_111_n125# a_15_n125#
+ a_n173_n125# a_n81_n125#
X0 a_111_n125# a_n129_n213# a_15_n125# w_n311_n335# sky130_fd_pr__nfet_01v8 ad=0p pd=0u as=0p ps=0u w=1.25e+06u l=150000u
X1 a_n81_n125# a_n129_n213# a_n173_n125# w_n311_n335# sky130_fd_pr__nfet_01v8 ad=0p pd=0u as=0p ps=0u w=1.25e+06u l=150000u
X2 a_15_n125# a_n129_n213# a_n81_n125# w_n311_n335# sky130_fd_pr__nfet_01v8 ad=0p pd=0u as=0p ps=0u w=1.25e+06u l=150000u
.ends

.subckt sky130_fd_pr__nfet_01v8_KU9PSX a_n125_n95# a_n33_n95# a_n81_n183# w_n263_n305#
X0 a_n33_n95# a_n81_n183# a_n125_n95# w_n263_n305# sky130_fd_pr__nfet_01v8 ad=0p pd=0u as=0p ps=0u w=950000u l=150000u
X1 a_n125_n95# a_n81_n183# a_n33_n95# w_n263_n305# sky130_fd_pr__nfet_01v8 ad=0p pd=0u as=0p ps=0u w=950000u l=150000u
.ends

.subckt latch_diff nQ Q vss CLK vdd nD D
Xsky130_fd_pr__pfet_01v8_MJG8BZ_0 vss vdd vdd vdd nQ Q sky130_fd_pr__pfet_01v8_MJG8BZ
Xsky130_fd_pr__pfet_01v8_MJG8BZ_1 vss vdd vdd vdd Q nQ sky130_fd_pr__pfet_01v8_MJG8BZ
Xsky130_fd_pr__nfet_01v8_2BS854_0 vss CLK vss m1_657_280# m1_657_280# vss sky130_fd_pr__nfet_01v8_2BS854
Xsky130_fd_pr__nfet_01v8_KU9PSX_0 m1_657_280# Q nD vss sky130_fd_pr__nfet_01v8_KU9PSX
Xsky130_fd_pr__nfet_01v8_KU9PSX_1 m1_657_280# nQ D vss sky130_fd_pr__nfet_01v8_KU9PSX
.ends

.subckt DFlipFlop vdd vss nQ nCLK Q D CLK
Xclock_inverter_0 vss D vdd latch_diff_0/D latch_diff_0/nD clock_inverter
Xlatch_diff_0 latch_diff_1/nD latch_diff_1/D vss CLK vdd latch_diff_0/nD latch_diff_0/D
+ latch_diff
Xlatch_diff_1 nQ Q vss nCLK vdd latch_diff_1/nD latch_diff_1/D latch_diff
.ends

.subckt sky130_fd_pr__pfet_01v8_ZP3U9B VSUBS a_n221_n84# a_159_n84# w_n359_n303# a_n63_n110#
+ a_n129_n84# a_33_n110# a_n159_n110# a_63_n84# a_129_n110# a_n33_n84#
X0 a_n129_n84# a_n159_n110# a_n221_n84# w_n359_n303# sky130_fd_pr__pfet_01v8 ad=0p pd=0u as=0p ps=0u w=840000u l=150000u
X1 a_63_n84# a_33_n110# a_n33_n84# w_n359_n303# sky130_fd_pr__pfet_01v8 ad=0p pd=0u as=0p ps=0u w=840000u l=150000u
X2 a_n33_n84# a_n63_n110# a_n129_n84# w_n359_n303# sky130_fd_pr__pfet_01v8 ad=0p pd=0u as=0p ps=0u w=840000u l=150000u
X3 a_159_n84# a_129_n110# a_63_n84# w_n359_n303# sky130_fd_pr__pfet_01v8 ad=0p pd=0u as=0p ps=0u w=840000u l=150000u
.ends

.subckt sky130_fd_pr__nfet_01v8_DXA56D w_n359_n252# a_n33_n42# a_129_n68# a_n159_n68#
+ a_n221_n42# a_159_n42# a_n129_n42# a_33_n68# a_n63_n68# a_63_n42#
X0 a_63_n42# a_33_n68# a_n33_n42# w_n359_n252# sky130_fd_pr__nfet_01v8 ad=0p pd=0u as=0p ps=0u w=420000u l=150000u
X1 a_n33_n42# a_n63_n68# a_n129_n42# w_n359_n252# sky130_fd_pr__nfet_01v8 ad=0p pd=0u as=0p ps=0u w=420000u l=150000u
X2 a_159_n42# a_129_n68# a_63_n42# w_n359_n252# sky130_fd_pr__nfet_01v8 ad=0p pd=0u as=0p ps=0u w=420000u l=150000u
X3 a_n129_n42# a_n159_n68# a_n221_n42# w_n359_n252# sky130_fd_pr__nfet_01v8 ad=0p pd=0u as=0p ps=0u w=420000u l=150000u
.ends

.subckt inverter_min_x4 in vss out vdd
Xsky130_fd_pr__pfet_01v8_ZP3U9B_0 vss out out vdd in vdd in in vdd in out sky130_fd_pr__pfet_01v8_ZP3U9B
Xsky130_fd_pr__nfet_01v8_DXA56D_0 vss out in in out out vss in in vss sky130_fd_pr__nfet_01v8_DXA56D
.ends

.subckt sky130_fd_pr__nfet_01v8_5RJ8EK a_n33_n42# a_33_n68# w_n263_n252# a_n63_n68#
+ a_n125_n42# a_63_n42#
X0 a_63_n42# a_33_n68# a_n33_n42# w_n263_n252# sky130_fd_pr__nfet_01v8 ad=0p pd=0u as=0p ps=0u w=420000u l=150000u
X1 a_n33_n42# a_n63_n68# a_n125_n42# w_n263_n252# sky130_fd_pr__nfet_01v8 ad=0p pd=0u as=0p ps=0u w=420000u l=150000u
.ends

.subckt sky130_fd_pr__pfet_01v8_ZPB9BB VSUBS a_n63_n110# a_33_n110# a_n125_n84# a_63_n84#
+ w_n263_n303# a_n33_n84#
X0 a_63_n84# a_33_n110# a_n33_n84# w_n263_n303# sky130_fd_pr__pfet_01v8 ad=0p pd=0u as=0p ps=0u w=840000u l=150000u