* NGSPICE file created from user_analog_project_wrapper.ext - technology: sky130A

.subckt sky130_fd_pr__pfet_01v8_4798MH VSUBS a_81_n156# a_111_n125# a_15_n125# a_n173_n125#
+ w_n311_n344# a_n111_n156# a_n15_n156# a_n81_n125#
X0 a_n81_n125# a_n111_n156# a_n173_n125# w_n311_n344# sky130_fd_pr__pfet_01v8 ad=0p pd=0u as=0p ps=0u w=1.25e+06u l=150000u
X1 a_15_n125# a_n15_n156# a_n81_n125# w_n311_n344# sky130_fd_pr__pfet_01v8 ad=0p pd=0u as=0p ps=0u w=1.25e+06u l=150000u
X2 a_111_n125# a_81_n156# a_15_n125# w_n311_n344# sky130_fd_pr__pfet_01v8 ad=0p pd=0u as=0p ps=0u w=1.25e+06u l=150000u
C0 a_n111_n156# a_n15_n156# 0.02fF
C1 a_n81_n125# a_15_n125# 0.36fF
C2 a_n81_n125# a_111_n125# 0.13fF
C3 w_n311_n344# a_n81_n125# 0.09fF
C4 a_15_n125# a_111_n125# 0.36fF
C5 w_n311_n344# a_15_n125# 0.09fF
C6 w_n311_n344# a_111_n125# 0.14fF
C7 a_n173_n125# a_n81_n125# 0.36fF
C8 a_n173_n125# a_15_n125# 0.13fF
C9 a_n173_n125# a_111_n125# 0.08fF
C10 a_n15_n156# a_81_n156# 0.02fF
C11 w_n311_n344# a_n173_n125# 0.14fF
C12 a_111_n125# VSUBS 0.03fF
C13 a_15_n125# VSUBS 0.03fF
C14 a_n81_n125# VSUBS 0.03fF
C15 a_n173_n125# VSUBS 0.03fF
C16 a_81_n156# VSUBS 0.05fF
C17 a_n15_n156# VSUBS 0.05fF
C18 a_n111_n156# VSUBS 0.05fF
C19 w_n311_n344# VSUBS 2.21fF
.ends

.subckt sky130_fd_pr__nfet_01v8_BHR94T a_n15_n151# w_n311_n335# a_81_n151# a_111_n125#
+ a_15_n125# a_n173_n125# a_n111_n151# a_n81_n125#
X0 a_111_n125# a_81_n151# a_15_n125# w_n311_n335# sky130_fd_pr__nfet_01v8 ad=0p pd=0u as=0p ps=0u w=1.25e+06u l=150000u
X1 a_n81_n125# a_n111_n151# a_n173_n125# w_n311_n335# sky130_fd_pr__nfet_01v8 ad=0p pd=0u as=0p ps=0u w=1.25e+06u l=150000u
X2 a_15_n125# a_n15_n151# a_n81_n125# w_n311_n335# sky130_fd_pr__nfet_01v8 ad=0p pd=0u as=0p ps=0u w=1.25e+06u l=150000u
C0 a_111_n125# a_n173_n125# 0.08fF
C1 a_111_n125# a_n81_n125# 0.13fF
C2 a_15_n125# a_n173_n125# 0.13fF
C3 a_15_n125# a_n81_n125# 0.36fF
C4 a_n173_n125# a_n81_n125# 0.36fF
C5 a_111_n125# a_15_n125# 0.36fF
C6 a_81_n151# a_n15_n151# 0.02fF
C7 a_n111_n151# a_n15_n151# 0.02fF
C8 a_111_n125# w_n311_n335# 0.17fF
C9 a_15_n125# w_n311_n335# 0.12fF
C10 a_n81_n125# w_n311_n335# 0.12fF
C11 a_n173_n125# w_n311_n335# 0.17fF
C12 a_81_n151# w_n311_n335# 0.05fF
C13 a_n15_n151# w_n311_n335# 0.05fF
C14 a_n111_n151# w_n311_n335# 0.05fF
.ends

.subckt trans_gate m1_187_n605# m1_45_n513# vss vdd
Xsky130_fd_pr__pfet_01v8_4798MH_0 vss vss m1_187_n605# m1_45_n513# m1_45_n513# vdd
+ vss vss m1_187_n605# sky130_fd_pr__pfet_01v8_4798MH
Xsky130_fd_pr__nfet_01v8_BHR94T_0 vdd vss vdd m1_187_n605# m1_45_n513# m1_45_n513#
+ vdd m1_187_n605# sky130_fd_pr__nfet_01v8_BHR94T
C0 vdd m1_187_n605# 0.55fF
C1 vdd m1_45_n513# 0.69fF
C2 m1_45_n513# m1_187_n605# 0.36fF
C3 m1_187_n605# vss 0.93fF
C4 m1_45_n513# vss 1.31fF
C5 vdd vss 3.36fF
.ends

.subckt sky130_fd_pr__pfet_01v8_7KT7MH VSUBS a_n111_n186# a_111_n125# a_15_n125# a_n173_n125#
+ w_n311_n344# a_n81_n125#
X0 a_n81_n125# a_n111_n186# a_n173_n125# w_n311_n344# sky130_fd_pr__pfet_01v8 ad=0p pd=0u as=0p ps=0u w=1.25e+06u l=150000u
X1 a_15_n125# a_n111_n186# a_n81_n125# w_n311_n344# sky130_fd_pr__pfet_01v8 ad=0p pd=0u as=0p ps=0u w=1.25e+06u l=150000u
X2 a_111_n125# a_n111_n186# a_15_n125# w_n311_n344# sky130_fd_pr__pfet_01v8 ad=0p pd=0u as=0p ps=0u w=1.25e+06u l=150000u
C0 a_n173_n125# a_111_n125# 0.08fF
C1 a_15_n125# w_n311_n344# 0.09fF
C2 a_15_n125# a_111_n125# 0.36fF
C3 w_n311_n344# a_n81_n125# 0.09fF
C4 a_n173_n125# a_15_n125# 0.13fF
C5 a_111_n125# a_n81_n125# 0.13fF
C6 a_n173_n125# a_n81_n125# 0.36fF
C7 a_15_n125# a_n81_n125# 0.36fF
C8 w_n311_n344# a_111_n125# 0.14fF
C9 a_n173_n125# w_n311_n344# 0.14fF
C10 a_111_n125# VSUBS 0.03fF
C11 a_15_n125# VSUBS 0.03fF
C12 a_n81_n125# VSUBS 0.03fF
C13 a_n173_n125# VSUBS 0.03fF
C14 a_n111_n186# VSUBS 0.26fF
C15 w_n311_n344# VSUBS 2.21fF
.ends

.subckt sky130_fd_pr__nfet_01v8_2BS6QM w_n311_n335# a_111_n125# a_15_n125# a_n173_n125#
+ a_n111_n151# a_n81_n125#
X0 a_111_n125# a_n111_n151# a_15_n125# w_n311_n335# sky130_fd_pr__nfet_01v8 ad=0p pd=0u as=0p ps=0u w=1.25e+06u l=150000u
X1 a_n81_n125# a_n111_n151# a_n173_n125# w_n311_n335# sky130_fd_pr__nfet_01v8 ad=0p pd=0u as=0p ps=0u w=1.25e+06u l=150000u
X2 a_15_n125# a_n111_n151# a_n81_n125# w_n311_n335# sky130_fd_pr__nfet_01v8 ad=0p pd=0u as=0p ps=0u w=1.25e+06u l=150000u
C0 a_n173_n125# a_n81_n125# 0.36fF
C1 a_n173_n125# a_15_n125# 0.13fF
C2 a_111_n125# a_n81_n125# 0.13fF
C3 a_111_n125# a_15_n125# 0.36fF
C4 a_n173_n125# a_111_n125# 0.08fF
C5 a_15_n125# a_n81_n125# 0.36fF
C6 a_111_n125# w_n311_n335# 0.17fF
C7 a_15_n125# w_n311_n335# 0.12fF
C8 a_n81_n125# w_n311_n335# 0.12fF
C9 a_n173_n125# w_n311_n335# 0.17fF
C10 a_n111_n151# w_n311_n335# 0.25fF
.ends

.subckt inverter_cp_x1 out in vss vdd
Xsky130_fd_pr__pfet_01v8_7KT7MH_0 vss in out vdd vdd vdd out sky130_fd_pr__pfet_01v8_7KT7MH
Xsky130_fd_pr__nfet_01v8_2BS6QM_0 vss out vss vss in out sky130_fd_pr__nfet_01v8_2BS6QM
C0 out vdd 0.10fF
C1 out in 0.32fF
C2 out vss 0.77fF
C3 in vss 0.95fF
C4 vdd vss 3.13fF
.ends

.subckt clock_inverter vss inverter_cp_x1_2/in CLK vdd inverter_cp_x1_0/out CLK_d
+ nCLK_d
Xtrans_gate_0 nCLK_d inverter_cp_x1_0/out vss vdd trans_gate
Xinverter_cp_x1_0 inverter_cp_x1_0/out CLK vss vdd inverter_cp_x1
Xinverter_cp_x1_2 CLK_d inverter_cp_x1_2/in vss vdd inverter_cp_x1
Xinverter_cp_x1_1 inverter_cp_x1_2/in CLK vss vdd inverter_cp_x1
C0 inverter_cp_x1_2/in CLK 0.31fF
C1 inverter_cp_x1_2/in CLK_d 0.12fF
C2 inverter_cp_x1_2/in vdd 0.21fF
C3 CLK inverter_cp_x1_0/out 0.31fF
C4 nCLK_d inverter_cp_x1_0/out 0.11fF
C5 vdd CLK 0.36fF
C6 vdd nCLK_d 0.03fF
C7 vdd CLK_d 0.03fF
C8 vdd inverter_cp_x1_0/out 0.28fF
C9 inverter_cp_x1_2/in vss 2.01fF
C10 CLK_d vss 0.96fF
C11 inverter_cp_x1_0/out vss 1.97fF
C12 CLK vss 3.03fF
C13 nCLK_d vss 1.44fF
C14 vdd vss 16.51fF
.ends

.subckt sky130_fd_pr__pfet_01v8_MJG8BZ VSUBS a_n125_n95# a_63_n95# w_n263_n314# a_n33_n95#
+ a_n63_n192#
X0 a_63_n95# a_n63_n192# a_n33_n95# w_n263_n314# sky130_fd_pr__pfet_01v8 ad=0p pd=0u as=0p ps=0u w=950000u l=150000u
X1 a_n33_n95# a_n63_n192# a_n125_n95# w_n263_n314# sky130_fd_pr__pfet_01v8 ad=0p pd=0u as=0p ps=0u w=950000u l=150000u
C0 a_63_n95# w_n263_n314# 0.11fF
C1 w_n263_n314# a_n125_n95# 0.11fF
C2 a_n33_n95# a_63_n95# 0.28fF
C3 a_n33_n95# a_n125_n95# 0.28fF
C4 a_63_n95# a_n125_n95# 0.10fF
C5 a_n33_n95# w_n263_n314# 0.08fF
C6 a_63_n95# VSUBS 0.03fF
C7 a_n33_n95# VSUBS 0.03fF
C8 a_n125_n95# VSUBS 0.03fF
C9 a_n63_n192# VSUBS 0.20fF
C10 w_n263_n314# VSUBS 1.80fF
.ends

.subckt sky130_fd_pr__nfet_01v8_2BS854 w_n311_n335# a_n129_n213# a_111_n125# a_15_n125#
+ a_n173_n125# a_n81_n125#
X0 a_111_n125# a_n129_n213# a_15_n125# w_n311_n335# sky130_fd_pr__nfet_01v8 ad=0p pd=0u as=0p ps=0u w=1.25e+06u l=150000u
X1 a_n81_n125# a_n129_n213# a_n173_n125# w_n311_n335# sky130_fd_pr__nfet_01v8 ad=0p pd=0u as=0p ps=0u w=1.25e+06u l=150000u
X2 a_15_n125# a_n129_n213# a_n81_n125# w_n311_n335# sky130_fd_pr__nfet_01v8 ad=0p pd=0u as=0p ps=0u w=1.25e+06u l=150000u
C0 a_n173_n125# a_111_n125# 0.08fF
C1 a_15_n125# a_n173_n125# 0.13fF
C2 a_n81_n125# a_n173_n125# 0.36fF
C3 a_n129_n213# a_n173_n125# 0.02fF
C4 a_15_n125# a_111_n125# 0.36fF
C5 a_n81_n125# a_111_n125# 0.13fF
C6 a_15_n125# a_n81_n125# 0.36fF
C7 a_n129_n213# a_111_n125# 0.01fF
C8 a_15_n125# a_n129_n213# 0.10fF
C9 a_n81_n125# a_n129_n213# 0.10fF
C10 a_111_n125# w_n311_n335# 0.05fF
C11 a_15_n125# w_n311_n335# 0.05fF
C12 a_n81_n125# w_n311_n335# 0.05fF
C13 a_n173_n125# w_n311_n335# 0.05fF
C14 a_n129_n213# w_n311_n335# 0.49fF
.ends

.subckt sky130_fd_pr__nfet_01v8_KU9PSX a_n125_n95# a_n33_n95# a_n81_n183# w_n263_n305#
X0 a_n33_n95# a_n81_n183# a_n125_n95# w_n263_n305# sky130_fd_pr__nfet_01v8 ad=0p pd=0u as=0p ps=0u w=950000u l=150000u
X1 a_n125_n95# a_n81_n183# a_n33_n95# w_n263_n305# sky130_fd_pr__nfet_01v8 ad=0p pd=0u as=0p ps=0u w=950000u l=150000u
C0 a_n81_n183# a_n33_n95# 0.10fF
C1 a_n33_n95# a_n125_n95# 0.88fF
C2 a_n81_n183# a_n125_n95# 0.16fF
C3 a_n33_n95# w_n263_n305# 0.07fF
C4 a_n125_n95# w_n263_n305# 0.13fF
C5 a_n81_n183# w_n263_n305# 0.31fF
.ends

.subckt latch_diff m1_657_280# nQ Q vss CLK vdd nD D
Xsky130_fd_pr__pfet_01v8_MJG8BZ_0 vss vdd vdd vdd nQ Q sky130_fd_pr__pfet_01v8_MJG8BZ
Xsky130_fd_pr__pfet_01v8_MJG8BZ_1 vss vdd vdd vdd Q nQ sky130_fd_pr__pfet_01v8_MJG8BZ
Xsky130_fd_pr__nfet_01v8_2BS854_0 vss CLK vss m1_657_280# m1_657_280# vss sky130_fd_pr__nfet_01v8_2BS854
Xsky130_fd_pr__nfet_01v8_KU9PSX_0 m1_657_280# Q nD vss sky130_fd_pr__nfet_01v8_KU9PSX
Xsky130_fd_pr__nfet_01v8_KU9PSX_1 m1_657_280# nQ D vss sky130_fd_pr__nfet_01v8_KU9PSX
C0 m1_657_280# CLK 0.24fF
C1 nQ nD 0.05fF
C2 D Q 0.05fF
C3 vdd Q 0.16fF
C4 D nQ 0.05fF
C5 nQ Q 0.93fF
C6 nQ vdd 0.16fF
C7 m1_657_280# Q 0.94fF
C8 nD Q 0.05fF
C9 m1_657_280# nQ 1.41fF
C10 nQ vss 1.16fF
C11 D vss 0.53fF
C12 Q vss -0.55fF
C13 m1_657_280# vss 1.88fF
C14 nD vss 0.16fF
C15 CLK vss 0.87fF
C16 vdd vss 5.98fF
.ends

.subckt DFlipFlop latch_diff_0/m1_657_280# vss vdd latch_diff_1/D clock_inverter_0/inverter_cp_x1_2/in
+ nQ latch_diff_0/nD Q latch_diff_1/nD latch_diff_1/m1_657_280# D latch_diff_0/D CLK
+ clock_inverter_0/inverter_cp_x1_0/out nCLK
Xclock_inverter_0 vss clock_inverter_0/inverter_cp_x1_2/in D vdd clock_inverter_0/inverter_cp_x1_0/out
+ latch_diff_0/D latch_diff_0/nD clock_inverter
Xlatch_diff_0 latch_diff_0/m1_657_280# latch_diff_1/nD latch_diff_1/D vss CLK vdd
+ latch_diff_0/nD latch_diff_0/D latch_diff
Xlatch_diff_1 latch_diff_1/m1_657_280# nQ Q vss nCLK vdd latch_diff_1/nD latch_diff_1/D
+ latch_diff
C0 latch_diff_1/m1_657_280# latch_diff_1/D 0.32fF
C1 latch_diff_1/D latch_diff_0/nD 0.41fF
C2 clock_inverter_0/inverter_cp_x1_0/out vdd 0.03fF
C3 latch_diff_1/m1_657_280# latch_diff_1/nD 0.42fF
C4 latch_diff_0/m1_657_280# latch_diff_1/m1_657_280# 0.18fF
C5 nQ latch_diff_1/D 0.11fF
C6 latch_diff_1/D latch_diff_1/nD 0.33fF
C7 latch_diff_0/m1_657_280# latch_diff_1/D 0.43fF
C8 latch_diff_0/m1_657_280# latch_diff_0/nD 0.38fF
C9 latch_diff_1/D latch_diff_0/D 0.11fF
C10 latch_diff_1/D vdd 0.03fF
C11 latch_diff_0/nD vdd 0.14fF
C12 latch_diff_1/nD Q 0.01fF
C13 nQ latch_diff_1/nD 0.08fF
C14 latch_diff_0/m1_657_280# latch_diff_1/nD 0.14fF
C15 latch_diff_1/nD latch_diff_0/D 0.04fF
C16 latch_diff_1/nD vdd 0.02fF
C17 latch_diff_0/m1_657_280# latch_diff_0/D 0.37fF
C18 latch_diff_0/D vdd 0.09fF
C19 nQ vss 0.57fF
C20 Q vss -0.92fF
C21 latch_diff_1/m1_657_280# vss 0.64fF
C22 nCLK vss 0.83fF
C23 latch_diff_1/nD vss 1.83fF
C24 latch_diff_1/D vss -0.30fF
C25 latch_diff_0/m1_657_280# vss 0.72fF
C26 CLK vss 0.83fF
C27 clock_inverter_0/inverter_cp_x1_2/in vss 1.86fF
C28 latch_diff_0/D vss 1.29fF
C29 clock_inverter_0/inverter_cp_x1_0/out vss 1.84fF
C30 D vss 3.27fF
C31 latch_diff_0/nD vss 1.74fF
C32 vdd vss 32.62fF
.ends

.subckt sky130_fd_pr__pfet_01v8_ZP3U9B VSUBS a_n221_n84# a_159_n84# w_n359_n303# a_n63_n110#
+ a_n129_n84# a_33_n110# a_n159_n110# a_63_n84# a_129_n110# a_n33_n84#
X0 a_n129_n84# a_n159_n110# a_n221_n84# w_n359_n303# sky130_fd_pr__pfet_01v8 ad=0p pd=0u as=0p ps=0u w=840000u l=150000u
X1 a_63_n84# a_33_n110# a_n33_n84# w_n359_n303# sky130_fd_pr__pfet_01v8 ad=0p pd=0u as=0p ps=0u w=840000u l=150000u
X2 a_n33_n84# a_n63_n110# a_n129_n84# w_n359_n303# sky130_fd_pr__pfet_01v8 ad=0p pd=0u as=0p ps=0u w=840000u l=150000u
X3 a_159_n84# a_129_n110# a_63_n84# w_n359_n303# sky130_fd_pr__pfet_01v8 ad=0p pd=0u as=0p ps=0u w=840000u l=150000u
C0 a_n129_n84# a_n221_n84# 0.24fF
C1 a_n221_n84# w_n359_n303# 0.08fF
C2 a_n129_n84# w_n359_n303# 0.06fF
C3 a_n33_n84# a_63_n84# 0.24fF
C4 a_n63_n110# a_33_n110# 0.02fF
C5 a_63_n84# a_n221_n84# 0.05fF
C6 a_n129_n84# a_63_n84# 0.09fF
C7 a_n63_n110# a_n159_n110# 0.02fF
C8 a_63_n84# w_n359_n303# 0.06fF
C9 a_n33_n84# a_159_n84# 0.09fF
C10 a_n221_n84# a_159_n84# 0.04fF
C11 a_n129_n84# a_159_n84# 0.05fF
C12 w_n359_n303# a_159_n84# 0.08fF
C13 a_33_n110# a_129_n110# 0.02fF
C14 a_63_n84# a_159_n84# 0.24fF
C15 a_n33_n84# a_n221_n84# 0.09fF
C16 a_n33_n84# a_n129_n84# 0.24fF
C17 a_n33_n84# w_n359_n303# 0.05fF
C18 a_159_n84# VSUBS 0.03fF
C19 a_63_n84# VSUBS 0.03fF
C20 a_n33_n84# VSUBS 0.03fF
C21 a_n129_n84# VSUBS 0.03fF
C22 a_n221_n84# VSUBS 0.03fF
C23 a_129_n110# VSUBS 0.05fF
C24 a_33_n110# VSUBS 0.05fF
C25 a_n63_n110# VSUBS 0.05fF
C26 a_n159_n110# VSUBS 0.05fF
C27 w_n359_n303# VSUBS 2.19fF
.ends

.subckt sky130_fd_pr__nfet_01v8_DXA56D w_n359_n252# a_n33_n42# a_129_n68# a_n159_n68#
+ a_n221_n42# a_159_n42# a_n129_n42# a_33_n68# a_n63_n68# a_63_n42#
X0 a_63_n42# a_33_n68# a_n33_n42# w_n359_n252# sky130_fd_pr__nfet_01v8 ad=0p pd=0u as=0p ps=0u w=420000u l=150000u
X1 a_n33_n42# a_n63_n68# a_n129_n42# w_n359_n252# sky130_fd_pr__nfet_01v8 ad=0p pd=0u as=0p ps=0u w=420000u l=150000u
X2 a_159_n42# a_129_n68# a_63_n42# w_n359_n252# sky130_fd_pr__nfet_01v8 ad=0p pd=0u as=0p ps=0u w=420000u l=150000u
X3 a_n129_n42# a_n159_n68# a_n221_n42# w_n359_n252# sky130_fd_pr__nfet_01v8 ad=0p pd=0u as=0p ps=0u w=420000u l=150000u
C0 a_n33_n42# a_63_n42# 0.12fF
C1 a_n33_n42# a_n221_n42# 0.05fF
C2 a_n221_n42# a_63_n42# 0.03fF
C3 a_n33_n42# a_n129_n42# 0.12fF
C4 a_n129_n42# a_63_n42# 0.05fF
C5 a_n63_n68# a_33_n68# 0.02fF
C6 a_n129_n42# a_n221_n42# 0.12fF
C7 a_129_n68# a_33_n68# 0.02fF
C8 a_n63_n68# a_n159_n68# 0.02fF
C9 a_n33_n42# a_159_n42# 0.05fF
C10 a_159_n42# a_63_n42# 0.12fF
C11 a_159_n42# a_n221_n42# 0.02fF
C12 a_159_n42# a_n129_n42# 0.03fF
C13 a_159_n42# w_n359_n252# 0.07fF
C14 a_63_n42# w_n359_n252# 0.06fF
C15 a_n33_n42# w_n359_n252# 0.06fF
C16 a_n129_n42# w_n359_n252# 0.06fF
C17 a_n221_n42# w_n359_n252# 0.07fF
C18 a_129_n68# w_n359_n252# 0.05fF
C19 a_33_n68# w_n359_n252# 0.05fF
C20 a_n63_n68# w_n359_n252# 0.05fF
C21 a_n159_n68# w_n359_n252# 0.05fF
.ends

.subckt inverter_min_x4 vdd in vss out
Xsky130_fd_pr__pfet_01v8_ZP3U9B_0 vss out out vdd in vdd in in vdd in out sky130_fd_pr__pfet_01v8_ZP3U9B
Xsky130_fd_pr__nfet_01v8_DXA56D_0 vss out in in out out vss in in vss sky130_fd_pr__nfet_01v8_DXA56D
C0 out vdd 0.62fF
C1 in vdd 0.33fF
C2 in out 0.67fF
C3 in vss 1.89fF
C4 out vss 0.66fF
C5 vdd vss 3.87fF
.ends

.subckt sky130_fd_pr__pfet_01v8_BDRUME VSUBS a_351_n84# a_n513_n84# a_639_n84# a_159_n84#
+ a_n321_n84# a_447_n84# a_n753_n181# a_n609_n84# w_n935_n303# a_n129_n84# a_735_n84#
+ a_255_n84# a_n417_n84# a_63_n84# a_543_n84# a_n705_n84# a_n225_n84# a_n797_n84#
+ a_n33_n84#
X0 a_n705_n84# a_n753_n181# a_n797_n84# w_n935_n303# sky130_fd_pr__pfet_01v8 ad=0p pd=0u as=0p ps=0u w=840000u l=150000u
X1 a_n513_n84# a_n753_n181# a_n609_n84# w_n935_n303# sky130_fd_pr__pfet_01v8 ad=0p pd=0u as=0p ps=0u w=840000u l=150000u
X2 a_n417_n84# a_n753_n181# a_n513_n84# w_n935_n303# sky130_fd_pr__pfet_01v8 ad=0p pd=0u as=0p ps=0u w=840000u l=150000u
X3 a_n321_n84# a_n753_n181# a_n417_n84# w_n935_n303# sky130_fd_pr__pfet_01v8 ad=0p pd=0u as=0p ps=0u w=840000u l=150000u
X4 a_n225_n84# a_n753_n181# a_n321_n84# w_n935_n303# sky130_fd_pr__pfet_01v8 ad=0p pd=0u as=0p ps=0u w=840000u l=150000u
X5 a_n129_n84# a_n753_n181# a_n225_n84# w_n935_n303# sky130_fd_pr__pfet_01v8 ad=0p pd=0u as=0p ps=0u w=840000u l=150000u
X6 a_n609_n84# a_n753_n181# a_n705_n84# w_n935_n303# sky130_fd_pr__pfet_01v8 ad=0p pd=0u as=0p ps=0u w=840000u l=150000u
X7 a_63_n84# a_n753_n181# a_n33_n84# w_n935_n303# sky130_fd_pr__pfet_01v8 ad=0p pd=0u as=0p ps=0u w=840000u l=150000u
X8 a_n33_n84# a_n753_n181# a_n129_n84# w_n935_n303# sky130_fd_pr__pfet_01v8 ad=0p pd=0u as=0p ps=0u w=840000u l=150000u
X9 a_159_n84# a_n753_n181# a_63_n84# w_n935_n303# sky130_fd_pr__pfet_01v8 ad=0p pd=0u as=0p ps=0u w=840000u l=150000u
X10 a_255_n84# a_n753_n181# a_159_n84# w_n935_n303# sky130_fd_pr__pfet_01v8 ad=0p pd=0u as=0p ps=0u w=840000u l=150000u
X11 a_351_n84# a_n753_n181# a_255_n84# w_n935_n303# sky130_fd_pr__pfet_01v8 ad=0p pd=0u as=0p ps=0u w=840000u l=150000u
X12 a_543_n84# a_n753_n181# a_447_n84# w_n935_n303# sky130_fd_pr__pfet_01v8 ad=0p pd=0u as=0p ps=0u w=840000u l=150000u
X13 a_447_n84# a_n753_n181# a_351_n84# w_n935_n303# sky130_fd_pr__pfet_01v8 ad=0p pd=0u as=0p ps=0u w=840000u l=150000u
X14 a_639_n84# a_n753_n181# a_543_n84# w_n935_n303# sky130_fd_pr__pfet_01v8 ad=0p pd=0u as=0p ps=0u w=840000u l=150000u
X15 a_735_n84# a_n753_n181# a_639_n84# w_n935_n303# sky130_fd_pr__pfet_01v8 ad=0p pd=0u as=0p ps=0u w=840000u l=150000u
C0 a_255_n84# a_351_n84# 0.24fF
C1 a_n417_n84# a_n705_n84# 0.05fF
C2 a_639_n84# w_n935_n303# 0.04fF
C3 a_351_n84# a_159_n84# 0.09fF
C4 a_n321_n84# a_n705_n84# 0.04fF
C5 a_n225_n84# a_n513_n84# 0.05fF
C6 a_n33_n84# a_63_n84# 0.24fF
C7 a_735_n84# a_543_n84# 0.09fF
C8 a_n609_n84# a_n705_n84# 0.24fF
C9 a_543_n84# a_447_n84# 0.24fF
C10 a_n417_n84# a_n225_n84# 0.09fF
C11 a_543_n84# a_255_n84# 0.05fF
C12 a_735_n84# a_447_n84# 0.05fF
C13 a_n225_n84# a_n129_n84# 0.24fF
C14 a_n417_n84# a_n513_n84# 0.24fF
C15 a_159_n84# a_n225_n84# 0.04fF
C16 a_351_n84# a_63_n84# 0.05fF
C17 a_n321_n84# a_n225_n84# 0.24fF
C18 a_255_n84# a_447_n84# 0.09fF
C19 a_543_n84# a_159_n84# 0.04fF
C20 w_n935_n303# a_n705_n84# 0.04fF
C21 a_n129_n84# a_n513_n84# 0.04fF
C22 a_n225_n84# a_n609_n84# 0.04fF
C23 a_n321_n84# a_n513_n84# 0.09fF
C24 a_159_n84# a_447_n84# 0.05fF
C25 a_255_n84# a_n129_n84# 0.04fF
C26 a_n417_n84# a_n129_n84# 0.05fF
C27 a_255_n84# a_159_n84# 0.24fF
C28 a_n417_n84# a_n321_n84# 0.24fF
C29 a_n797_n84# a_n705_n84# 0.24fF
C30 a_n513_n84# a_n609_n84# 0.24fF
C31 a_351_n84# a_639_n84# 0.05fF
C32 a_63_n84# a_n225_n84# 0.05fF
C33 a_159_n84# a_n129_n84# 0.05fF
C34 a_n417_n84# a_n609_n84# 0.09fF
C35 a_n321_n84# a_n129_n84# 0.09fF
C36 a_543_n84# w_n935_n303# 0.03fF
C37 a_63_n84# a_447_n84# 0.04fF
C38 a_n321_n84# a_n609_n84# 0.05fF
C39 a_255_n84# a_63_n84# 0.09fF
C40 a_735_n84# w_n935_n303# 0.08fF
C41 a_n513_n84# w_n935_n303# 0.02fF
C42 a_447_n84# w_n935_n303# 0.02fF
C43 a_n33_n84# a_351_n84# 0.04fF
C44 a_63_n84# a_n129_n84# 0.09fF
C45 a_543_n84# a_639_n84# 0.24fF
C46 a_n797_n84# a_n513_n84# 0.05fF
C47 a_159_n84# a_63_n84# 0.24fF
C48 a_n321_n84# a_63_n84# 0.04fF
C49 a_n417_n84# a_n797_n84# 0.04fF
C50 a_735_n84# a_639_n84# 0.24fF
C51 a_447_n84# a_639_n84# 0.09fF
C52 a_255_n84# a_639_n84# 0.04fF
C53 w_n935_n303# a_n609_n84# 0.03fF
C54 a_n33_n84# a_n225_n84# 0.09fF
C55 a_n797_n84# a_n609_n84# 0.09fF
C56 a_n33_n84# a_255_n84# 0.05fF
C57 a_n417_n84# a_n33_n84# 0.04fF
C58 a_543_n84# a_351_n84# 0.09fF
C59 a_n797_n84# w_n935_n303# 0.08fF
C60 a_n33_n84# a_n129_n84# 0.24fF
C61 a_735_n84# a_351_n84# 0.04fF
C62 a_n33_n84# a_159_n84# 0.09fF
C63 a_n513_n84# a_n705_n84# 0.09fF
C64 a_n33_n84# a_n321_n84# 0.05fF
C65 a_351_n84# a_447_n84# 0.24fF
C66 a_735_n84# VSUBS 0.03fF
C67 a_639_n84# VSUBS 0.03fF
C68 a_543_n84# VSUBS 0.03fF
C69 a_447_n84# VSUBS 0.03fF
C70 a_351_n84# VSUBS 0.03fF
C71 a_255_n84# VSUBS 0.03fF
C72 a_159_n84# VSUBS 0.03fF
C73 a_63_n84# VSUBS 0.03fF
C74 a_n33_n84# VSUBS 0.03fF
C75 a_n129_n84# VSUBS 0.03fF
C76 a_n225_n84# VSUBS 0.03fF
C77 a_n321_n84# VSUBS 0.03fF
C78 a_n417_n84# VSUBS 0.03fF
C79 a_n513_n84# VSUBS 0.03fF
C80 a_n609_n84# VSUBS 0.03fF
C81 a_n705_n84# VSUBS 0.03fF
C82 a_n797_n84# VSUBS 0.03fF
C83 a_n753_n181# VSUBS 2.56fF
C84 w_n935_n303# VSUBS 4.96fF
.ends

.subckt sky130_fd_pr__nfet_01v8_QQE8KM a_543_n42# a_n705_n42# a_n225_n42# a_n797_n42#
+ a_n33_n42# a_351_n42# a_n513_n42# a_639_n42# a_159_n42# w_n935_n252# a_n757_64#
+ a_n321_n42# a_447_n42# a_n609_n42# a_n129_n42# a_735_n42# a_255_n42# a_n417_n42#
+ a_63_n42#
X0 a_63_n42# a_n757_64# a_n33_n42# w_n935_n252# sky130_fd_pr__nfet_01v8 ad=0p pd=0u as=0p ps=0u w=420000u l=150000u
X1 a_n33_n42# a_n757_64# a_n129_n42# w_n935_n252# sky130_fd_pr__nfet_01v8 ad=0p pd=0u as=0p ps=0u w=420000u l=150000u
X2 a_351_n42# a_n757_64# a_255_n42# w_n935_n252# sky130_fd_pr__nfet_01v8 ad=0p pd=0u as=0p ps=0u w=420000u l=150000u
X3 a_159_n42# a_n757_64# a_63_n42# w_n935_n252# sky130_fd_pr__nfet_01v8 ad=0p pd=0u as=0p ps=0u w=420000u l=150000u
X4 a_255_n42# a_n757_64# a_159_n42# w_n935_n252# sky130_fd_pr__nfet_01v8 ad=0p pd=0u as=0p ps=0u w=420000u l=150000u
X5 a_447_n42# a_n757_64# a_351_n42# w_n935_n252# sky130_fd_pr__nfet_01v8 ad=0p pd=0u as=0p ps=0u w=420000u l=150000u
X6 a_543_n42# a_n757_64# a_447_n42# w_n935_n252# sky130_fd_pr__nfet_01v8 ad=0p pd=0u as=0p ps=0u w=420000u l=150000u
X7 a_735_n42# a_n757_64# a_639_n42# w_n935_n252# sky130_fd_pr__nfet_01v8 ad=0p pd=0u as=0p ps=0u w=420000u l=150000u
X8 a_639_n42# a_n757_64# a_543_n42# w_n935_n252# sky130_fd_pr__nfet_01v8 ad=0p pd=0u as=0p ps=0u w=420000u l=150000u
X9 a_n321_n42# a_n757_64# a_n417_n42# w_n935_n252# sky130_fd_pr__nfet_01v8 ad=0p pd=0u as=0p ps=0u w=420000u l=150000u
X10 a_n705_n42# a_n757_64# a_n797_n42# w_n935_n252# sky130_fd_pr__nfet_01v8 ad=0p pd=0u as=0p ps=0u w=420000u l=150000u
X11 a_n513_n42# a_n757_64# a_n609_n42# w_n935_n252# sky130_fd_pr__nfet_01v8 ad=0p pd=0u as=0p ps=0u w=420000u l=150000u
X12 a_n417_n42# a_n757_64# a_n513_n42# w_n935_n252# sky130_fd_pr__nfet_01v8 ad=0p pd=0u as=0p ps=0u w=420000u l=150000u
X13 a_n225_n42# a_n757_64# a_n321_n42# w_n935_n252# sky130_fd_pr__nfet_01v8 ad=0p pd=0u as=0p ps=0u w=420000u l=150000u
X14 a_n129_n42# a_n757_64# a_n225_n42# w_n935_n252# sky130_fd_pr__nfet_01v8 ad=0p pd=0u as=0p ps=0u w=420000u l=150000u
X15 a_n609_n42# a_n757_64# a_n705_n42# w_n935_n252# sky130_fd_pr__nfet_01v8 ad=0p pd=0u as=0p ps=0u w=420000u l=150000u
C0 a_351_n42# a_159_n42# 0.05fF
C1 a_n797_n42# a_n609_n42# 0.05fF
C2 a_n417_n42# a_n225_n42# 0.05fF
C3 a_n129_n42# a_255_n42# 0.02fF
C4 a_n33_n42# a_351_n42# 0.02fF
C5 a_159_n42# a_255_n42# 0.12fF
C6 a_n513_n42# a_n417_n42# 0.12fF
C7 a_n417_n42# a_n705_n42# 0.03fF
C8 a_351_n42# a_543_n42# 0.05fF
C9 a_543_n42# a_639_n42# 0.12fF
C10 a_n129_n42# a_n225_n42# 0.12fF
C11 a_n33_n42# a_255_n42# 0.03fF
C12 a_351_n42# a_639_n42# 0.03fF
C13 a_n225_n42# a_159_n42# 0.02fF
C14 a_543_n42# a_255_n42# 0.03fF
C15 a_n129_n42# a_n513_n42# 0.02fF
C16 a_n129_n42# a_63_n42# 0.05fF
C17 a_351_n42# a_255_n42# 0.12fF
C18 a_n417_n42# a_n321_n42# 0.12fF
C19 a_639_n42# a_255_n42# 0.02fF
C20 a_n33_n42# a_n225_n42# 0.05fF
C21 a_n513_n42# a_n797_n42# 0.03fF
C22 a_n797_n42# a_n705_n42# 0.12fF
C23 a_159_n42# a_63_n42# 0.12fF
C24 a_n609_n42# a_n225_n42# 0.02fF
C25 a_n129_n42# a_n321_n42# 0.05fF
C26 a_735_n42# a_447_n42# 0.03fF
C27 a_n33_n42# a_63_n42# 0.12fF
C28 a_n513_n42# a_n609_n42# 0.12fF
C29 a_n609_n42# a_n705_n42# 0.12fF
C30 a_159_n42# a_447_n42# 0.03fF
C31 a_351_n42# a_63_n42# 0.03fF
C32 a_n33_n42# a_n321_n42# 0.03fF
C33 a_543_n42# a_447_n42# 0.12fF
C34 a_255_n42# a_63_n42# 0.05fF
C35 a_n129_n42# a_n417_n42# 0.03fF
C36 a_n609_n42# a_n321_n42# 0.03fF
C37 a_351_n42# a_447_n42# 0.12fF
C38 a_639_n42# a_447_n42# 0.05fF
C39 a_n513_n42# a_n225_n42# 0.03fF
C40 a_n417_n42# a_n797_n42# 0.02fF
C41 a_n225_n42# a_63_n42# 0.03fF
C42 a_n513_n42# a_n705_n42# 0.05fF
C43 a_447_n42# a_255_n42# 0.05fF
C44 a_n33_n42# a_n417_n42# 0.02fF
C45 a_n129_n42# a_159_n42# 0.03fF
C46 a_n225_n42# a_n321_n42# 0.12fF
C47 a_n417_n42# a_n609_n42# 0.05fF
C48 a_n129_n42# a_n33_n42# 0.12fF
C49 a_543_n42# a_735_n42# 0.05fF
C50 a_n513_n42# a_n321_n42# 0.05fF
C51 a_n705_n42# a_n321_n42# 0.02fF
C52 a_n33_n42# a_159_n42# 0.05fF
C53 a_n321_n42# a_63_n42# 0.02fF
C54 a_351_n42# a_735_n42# 0.02fF
C55 a_735_n42# a_639_n42# 0.12fF
C56 a_447_n42# a_63_n42# 0.02fF
C57 a_543_n42# a_159_n42# 0.02fF
C58 a_735_n42# w_n935_n252# 0.07fF
C59 a_639_n42# w_n935_n252# 0.05fF
C60 a_543_n42# w_n935_n252# 0.05fF
C61 a_447_n42# w_n935_n252# 0.04fF
C62 a_351_n42# w_n935_n252# 0.04fF
C63 a_255_n42# w_n935_n252# 0.04fF
C64 a_159_n42# w_n935_n252# 0.04fF
C65 a_63_n42# w_n935_n252# 0.04fF
C66 a_n33_n42# w_n935_n252# 0.04fF
C67 a_n129_n42# w_n935_n252# 0.04fF
C68 a_n225_n42# w_n935_n252# 0.04fF
C69 a_n321_n42# w_n935_n252# 0.04fF
C70 a_n417_n42# w_n935_n252# 0.04fF
C71 a_n513_n42# w_n935_n252# 0.04fF
C72 a_n609_n42# w_n935_n252# 0.05fF
C73 a_n705_n42# w_n935_n252# 0.05fF
C74 a_n797_n42# w_n935_n252# 0.07fF
C75 a_n757_64# w_n935_n252# 2.44fF
.ends

.subckt inverter_min_x16 in out vss vdd
Xsky130_fd_pr__pfet_01v8_BDRUME_0 vss out vdd vdd out vdd vdd in out vdd vdd out vdd
+ out vdd out vdd out out out sky130_fd_pr__pfet_01v8_BDRUME
Xsky130_fd_pr__nfet_01v8_QQE8KM_0 out vss out out out out vss vss out vss in vss vss
+ out vss out vss out vss sky130_fd_pr__nfet_01v8_QQE8KM
C0 vdd in 1.15fF
C1 vdd out 1.63fF
C2 in out 1.40fF
C3 out vss 0.98fF
C4 in vss 7.30fF
C5 vdd vss 10.49fF
.ends

.subckt sky130_fd_pr__pfet_01v8_75PKJG VSUBS a_n33_n102# w_n359_n321# a_n177_n199#
+ a_63_n102# a_n129_n102# a_n221_n102# a_25_n199# a_159_n102#
X0 a_159_n102# a_25_n199# a_63_n102# w_n359_n321# sky130_fd_pr__pfet_01v8 ad=0p pd=0u as=0p ps=0u w=1.02e+06u l=150000u
X1 a_63_n102# a_25_n199# a_n33_n102# w_n359_n321# sky130_fd_pr__pfet_01v8 ad=0p pd=0u as=0p ps=0u w=1.02e+06u l=150000u
X2 a_n129_n102# a_n177_n199# a_n221_n102# w_n359_n321# sky130_fd_pr__pfet_01v8 ad=0p pd=0u as=0p ps=0u w=1.02e+06u l=150000u
X3 a_n33_n102# a_n177_n199# a_n129_n102# w_n359_n321# sky130_fd_pr__pfet_01v8 ad=0p pd=0u as=0p ps=0u w=1.02e+06u l=150000u
C0 a_n129_n102# w_n359_n321# 0.07fF
C1 a_n33_n102# a_n129_n102# 0.30fF
C2 a_159_n102# w_n359_n321# 0.10fF
C3 a_159_n102# a_n33_n102# 0.11fF
C4 a_63_n102# w_n359_n321# 0.07fF
C5 a_63_n102# a_n33_n102# 0.30fF
C6 a_159_n102# a_n129_n102# 0.07fF
C7 a_63_n102# a_n129_n102# 0.11fF
C8 a_n177_n199# a_25_n199# 0.07fF
C9 a_63_n102# a_159_n102# 0.30fF
C10 a_n221_n102# w_n359_n321# 0.10fF
C11 a_n221_n102# a_n33_n102# 0.11fF
C12 a_n221_n102# a_n129_n102# 0.30fF
C13 a_n33_n102# w_n359_n321# 0.06fF
C14 a_159_n102# a_n221_n102# 0.05fF
C15 a_63_n102# a_n221_n102# 0.07fF
C16 a_159_n102# VSUBS 0.03fF
C17 a_63_n102# VSUBS 0.03fF
C18 a_n33_n102# VSUBS 0.03fF
C19 a_n129_n102# VSUBS 0.03fF
C20 a_n221_n102# VSUBS 0.03fF
C21 a_25_n199# VSUBS 0.22fF
C22 a_n177_n199# VSUBS 0.22fF
C23 w_n359_n321# VSUBS 2.35fF
.ends

.subckt sky130_fd_pr__nfet_01v8_XRJ78J a_n33_n102# w_n263_n312# a_63_n102# a_n125_n102#
+ a_n81_124#
X0 a_n33_n102# a_n81_124# a_n125_n102# w_n263_n312# sky130_fd_pr__nfet_01v8 ad=0p pd=0u as=0p ps=0u w=1.02e+06u l=150000u
X1 a_63_n102# a_n81_124# a_n33_n102# w_n263_n312# sky130_fd_pr__nfet_01v8 ad=0p pd=0u as=0p ps=0u w=1.02e+06u l=150000u
C0 a_n125_n102# a_63_n102# 0.11fF
C1 a_n125_n102# a_n33_n102# 0.30fF
C2 a_n33_n102# a_63_n102# 0.30fF
C3 a_63_n102# w_n263_n312# 0.06fF
C4 a_n33_n102# w_n263_n312# 0.08fF
C5 a_n125_n102# w_n263_n312# 0.12fF
C6 a_n81_124# w_n263_n312# 0.21fF
.ends

.subckt nand_logic avss1p8 in1 avdd1p8 in2 out m1_21_n341#
Xsky130_fd_pr__pfet_01v8_75PKJG_0 avss1p8 avdd1p8 avdd1p8 in1 out out avdd1p8 in2
+ avdd1p8 sky130_fd_pr__pfet_01v8_75PKJG
Xsky130_fd_pr__nfet_01v8_XRJ78J_0 m1_21_n341# avss1p8 avss1p8 avss1p8 in1 sky130_fd_pr__nfet_01v8_XRJ78J
Xsky130_fd_pr__nfet_01v8_XRJ78J_1 out avss1p8 m1_21_n341# m1_21_n341# in2 sky130_fd_pr__nfet_01v8_XRJ78J
C0 out m1_21_n341# 0.13fF
C1 out avdd1p8 0.20fF
C2 avdd1p8 in2 0.02fF
C3 out in1 0.10fF
C4 m1_21_n341# avdd1p8 0.01fF
C5 in1 in2 0.07fF
C6 m1_21_n341# in1 0.25fF
C7 out in2 0.37fF
C8 m1_21_n341# avss1p8 0.92fF
C9 out avss1p8 0.47fF
C10 in2 avss1p8 0.91fF
C11 in1 avss1p8 0.93fF
C12 avdd1p8 avss1p8 2.37fF
.ends

.subckt res_amp_sync_v2 avdd1p8 DFlipFlop_4/Q vss clkn DFlipFlop_4/latch_diff_1/m1_657_280#
+ DFlipFlop_4/nQ DFlipFlop_3/latch_diff_1/nD DFlipFlop_3/latch_diff_0/D DFlipFlop_3/Q
+ DFlipFlop_3/D DFlipFlop_4/D DFlipFlop_1/D DFlipFlop_3/clock_inverter_0/inverter_cp_x1_2/in
+ DFlipFlop_4/latch_diff_1/D DFlipFlop_4/latch_diff_1/nD DFlipFlop_4/clock_inverter_0/inverter_cp_x1_2/in
+ DFlipFlop_4/latch_diff_0/D DFlipFlop_3/latch_diff_1/D clk_amp DFlipFlop_3/nQ clkp
+ rst
XDFlipFlop_0 DFlipFlop_0/latch_diff_0/m1_657_280# vss avdd1p8 DFlipFlop_0/latch_diff_1/D
+ DFlipFlop_0/clock_inverter_0/inverter_cp_x1_2/in DFlipFlop_0/nQ DFlipFlop_0/latch_diff_0/nD
+ DFlipFlop_0/Q DFlipFlop_0/latch_diff_1/nD DFlipFlop_0/latch_diff_1/m1_657_280# DFlipFlop_3/D
+ DFlipFlop_0/latch_diff_0/D clkp DFlipFlop_0/clock_inverter_0/inverter_cp_x1_0/out
+ clkn DFlipFlop
XDFlipFlop_1 DFlipFlop_1/latch_diff_0/m1_657_280# vss avdd1p8 DFlipFlop_1/latch_diff_1/D
+ DFlipFlop_1/clock_inverter_0/inverter_cp_x1_2/in DFlipFlop_1/nQ DFlipFlop_1/latch_diff_0/nD
+ DFlipFlop_2/D DFlipFlop_1/latch_diff_1/nD DFlipFlop_1/latch_diff_1/m1_657_280# DFlipFlop_1/D
+ DFlipFlop_1/latch_diff_0/D DFlipFlop_3/D DFlipFlop_1/clock_inverter_0/inverter_cp_x1_0/out
+ DFlipFlop_0/Q DFlipFlop
XDFlipFlop_2 DFlipFlop_2/latch_diff_0/m1_657_280# vss avdd1p8 DFlipFlop_2/latch_diff_1/D
+ DFlipFlop_2/clock_inverter_0/inverter_cp_x1_2/in DFlipFlop_2/nQ DFlipFlop_2/latch_diff_0/nD
+ DFlipFlop_2/Q DFlipFlop_2/latch_diff_1/nD DFlipFlop_2/latch_diff_1/m1_657_280# DFlipFlop_2/D
+ DFlipFlop_2/latch_diff_0/D clkp DFlipFlop_2/clock_inverter_0/inverter_cp_x1_0/out
+ clkn DFlipFlop
XDFlipFlop_3 DFlipFlop_3/latch_diff_0/m1_657_280# vss avdd1p8 DFlipFlop_3/latch_diff_1/D
+ DFlipFlop_3/clock_inverter_0/inverter_cp_x1_2/in DFlipFlop_3/nQ DFlipFlop_3/latch_diff_0/nD
+ DFlipFlop_3/Q DFlipFlop_3/latch_diff_1/nD DFlipFlop_3/latch_diff_1/m1_657_280# DFlipFlop_3/D
+ DFlipFlop_3/latch_diff_0/D clkp DFlipFlop_3/clock_inverter_0/inverter_cp_x1_0/out
+ clkn DFlipFlop
Xinverter_min_x4_0 avdd1p8 DFlipFlop_0/Q vss DFlipFlop_3/D inverter_min_x4
Xinverter_min_x4_1 avdd1p8 nand_logic_0/out vss DFlipFlop_4/D inverter_min_x4
XDFlipFlop_4 DFlipFlop_4/latch_diff_0/m1_657_280# vss avdd1p8 DFlipFlop_4/latch_diff_1/D
+ DFlipFlop_4/clock_inverter_0/inverter_cp_x1_2/in DFlipFlop_4/nQ DFlipFlop_4/latch_diff_0/nD
+ DFlipFlop_4/Q DFlipFlop_4/latch_diff_1/nD DFlipFlop_4/latch_diff_1/m1_657_280# DFlipFlop_4/D
+ DFlipFlop_4/latch_diff_0/D clkp DFlipFlop_4/clock_inverter_0/inverter_cp_x1_0/out
+ clkn DFlipFlop
Xinverter_min_x4_2 avdd1p8 DFlipFlop_2/D vss DFlipFlop_1/D inverter_min_x4
Xinverter_min_x4_3 avdd1p8 nand_logic_1/out vss rst inverter_min_x4
Xinverter_min_x4_4 avdd1p8 DFlipFlop_4/Q vss inverter_min_x4_4/out inverter_min_x4
Xinverter_min_x16_0 inverter_min_x4_4/out clk_amp vss avdd1p8 inverter_min_x16
Xnand_logic_0 vss DFlipFlop_2/Q avdd1p8 DFlipFlop_3/Q nand_logic_0/out nand_logic_0/m1_21_n341#
+ nand_logic
Xnand_logic_1 vss DFlipFlop_4/D avdd1p8 clkp nand_logic_1/out nand_logic_1/m1_21_n341#
+ nand_logic
C0 DFlipFlop_0/clock_inverter_0/inverter_cp_x1_0/out avdd1p8 0.01fF
C1 DFlipFlop_1/D DFlipFlop_1/latch_diff_1/D 0.02fF
C2 clkp avdd1p8 0.53fF