* NGSPICE file created from user_analog_project_wrapper.ext - technology: sky130A

.subckt sky130_fd_pr__pfet_01v8_4798MH VSUBS a_81_n156# a_111_n125# a_15_n125# a_n173_n125#
+ w_n311_n344# a_n111_n156# a_n15_n156# a_n81_n125#
X0 a_n81_n125# a_n111_n156# a_n173_n125# w_n311_n344# sky130_fd_pr__pfet_01v8 ad=0p pd=0u as=0p ps=0u w=1.25e+06u l=150000u
X1 a_15_n125# a_n15_n156# a_n81_n125# w_n311_n344# sky130_fd_pr__pfet_01v8 ad=0p pd=0u as=0p ps=0u w=1.25e+06u l=150000u
X2 a_111_n125# a_81_n156# a_15_n125# w_n311_n344# sky130_fd_pr__pfet_01v8 ad=0p pd=0u as=0p ps=0u w=1.25e+06u l=150000u
.ends

.subckt sky130_fd_pr__nfet_01v8_BHR94T a_n15_n151# w_n311_n335# a_81_n151# a_111_n125#
+ a_15_n125# a_n173_n125# a_n111_n151# a_n81_n125#
X0 a_111_n125# a_81_n151# a_15_n125# w_n311_n335# sky130_fd_pr__nfet_01v8 ad=0p pd=0u as=0p ps=0u w=1.25e+06u l=150000u
X1 a_n81_n125# a_n111_n151# a_n173_n125# w_n311_n335# sky130_fd_pr__nfet_01v8 ad=0p pd=0u as=0p ps=0u w=1.25e+06u l=150000u
X2 a_15_n125# a_n15_n151# a_n81_n125# w_n311_n335# sky130_fd_pr__nfet_01v8 ad=0p pd=0u as=0p ps=0u w=1.25e+06u l=150000u
.ends

.subckt trans_gate m1_187_n605# m1_45_n513# vss vdd
Xsky130_fd_pr__pfet_01v8_4798MH_0 vss vss m1_187_n605# m1_45_n513# m1_45_n513# vdd
+ vss vss m1_187_n605# sky130_fd_pr__pfet_01v8_4798MH
Xsky130_fd_pr__nfet_01v8_BHR94T_0 vdd vss vdd m1_187_n605# m1_45_n513# m1_45_n513#
+ vdd m1_187_n605# sky130_fd_pr__nfet_01v8_BHR94T
.ends

.subckt sky130_fd_pr__pfet_01v8_7KT7MH VSUBS a_n111_n186# a_111_n125# a_15_n125# a_n173_n125#
+ w_n311_n344# a_n81_n125#
X0 a_n81_n125# a_n111_n186# a_n173_n125# w_n311_n344# sky130_fd_pr__pfet_01v8 ad=0p pd=0u as=0p ps=0u w=1.25e+06u l=150000u
X1 a_15_n125# a_n111_n186# a_n81_n125# w_n311_n344# sky130_fd_pr__pfet_01v8 ad=0p pd=0u as=0p ps=0u w=1.25e+06u l=150000u
X2 a_111_n125# a_n111_n186# a_15_n125# w_n311_n344# sky130_fd_pr__pfet_01v8 ad=0p pd=0u as=0p ps=0u w=1.25e+06u l=150000u
.ends

.subckt sky130_fd_pr__nfet_01v8_2BS6QM w_n311_n335# a_111_n125# a_15_n125# a_n173_n125#
+ a_n111_n151# a_n81_n125#
X0 a_111_n125# a_n111_n151# a_15_n125# w_n311_n335# sky130_fd_pr__nfet_01v8 ad=0p pd=0u as=0p ps=0u w=1.25e+06u l=150000u
X1 a_n81_n125# a_n111_n151# a_n173_n125# w_n311_n335# sky130_fd_pr__nfet_01v8 ad=0p pd=0u as=0p ps=0u w=1.25e+06u l=150000u
X2 a_15_n125# a_n111_n151# a_n81_n125# w_n311_n335# sky130_fd_pr__nfet_01v8 ad=0p pd=0u as=0p ps=0u w=1.25e+06u l=150000u
.ends

.subckt inverter_cp_x1 in vss out vdd
Xsky130_fd_pr__pfet_01v8_7KT7MH_0 vss in out vdd vdd vdd out sky130_fd_pr__pfet_01v8_7KT7MH
Xsky130_fd_pr__nfet_01v8_2BS6QM_0 vss out vss vss in out sky130_fd_pr__nfet_01v8_2BS6QM
.ends

.subckt clock_inverter vss CLK vdd CLK_d nCLK_d
Xtrans_gate_0 nCLK_d inverter_cp_x1_0/out vss vdd trans_gate
Xinverter_cp_x1_0 CLK vss inverter_cp_x1_0/out vdd inverter_cp_x1
Xinverter_cp_x1_2 inverter_cp_x1_2/in vss CLK_d vdd inverter_cp_x1
Xinverter_cp_x1_1 CLK vss inverter_cp_x1_2/in vdd inverter_cp_x1
.ends

.subckt sky130_fd_pr__pfet_01v8_MJG8BZ VSUBS a_n125_n95# a_63_n95# w_n263_n314# a_n33_n95#
+ a_n63_n192#
X0 a_63_n95# a_n63_n192# a_n33_n95# w_n263_n314# sky130_fd_pr__pfet_01v8 ad=0p pd=0u as=0p ps=0u w=950000u l=150000u
X1 a_n33_n95# a_n63_n192# a_n125_n95# w_n263_n314# sky130_fd_pr__pfet_01v8 ad=0p pd=0u as=0p ps=0u w=950000u l=150000u
.ends

.subckt sky130_fd_pr__nfet_01v8_2BS854 w_n311_n335# a_n129_n213# a_111_n125# a_15_n125#
+ a_n173_n125# a_n81_n125#
X0 a_111_n125# a_n129_n213# a_15_n125# w_n311_n335# sky130_fd_pr__nfet_01v8 ad=0p pd=0u as=0p ps=0u w=1.25e+06u l=150000u
X1 a_n81_n125# a_n129_n213# a_n173_n125# w_n311_n335# sky130_fd_pr__nfet_01v8 ad=0p pd=0u as=0p ps=0u w=1.25e+06u l=150000u
X2 a_15_n125# a_n129_n213# a_n81_n125# w_n311_n335# sky130_fd_pr__nfet_01v8 ad=0p pd=0u as=0p ps=0u w=1.25e+06u l=150000u
.ends

.subckt sky130_fd_pr__nfet_01v8_KU9PSX a_n125_n95# a_n33_n95# a_n81_n183# w_n263_n305#
X0 a_n33_n95# a_n81_n183# a_n125_n95# w_n263_n305# sky130_fd_pr__nfet_01v8 ad=0p pd=0u as=0p ps=0u w=950000u l=150000u
X1 a_n125_n95# a_n81_n183# a_n33_n95# w_n263_n305# sky130_fd_pr__nfet_01v8 ad=0p pd=0u as=0p ps=0u w=950000u l=150000u
.ends

.subckt latch_diff nQ Q vss CLK vdd nD D
Xsky130_fd_pr__pfet_01v8_MJG8BZ_0 vss vdd vdd vdd nQ Q sky130_fd_pr__pfet_01v8_MJG8BZ
Xsky130_fd_pr__pfet_01v8_MJG8BZ_1 vss vdd vdd vdd Q nQ sky130_fd_pr__pfet_01v8_MJG8BZ
Xsky130_fd_pr__nfet_01v8_2BS854_0 vss CLK vss m1_657_280# m1_657_280# vss sky130_fd_pr__nfet_01v8_2BS854
Xsky130_fd_pr__nfet_01v8_KU9PSX_0 m1_657_280# Q nD vss sky130_fd_pr__nfet_01v8_KU9PSX
Xsky130_fd_pr__nfet_01v8_KU9PSX_1 m1_657_280# nQ D vss sky130_fd_pr__nfet_01v8_KU9PSX
.ends

.subckt DFlipFlop vss vdd nQ nCLK Q D CLK
Xclock_inverter_0 vss D vdd latch_diff_0/D latch_diff_0/nD clock_inverter
Xlatch_diff_0 latch_diff_1/nD latch_diff_1/D vss CLK vdd latch_diff_0/nD latch_diff_0/D
+ latch_diff
Xlatch_diff_1 nQ Q vss nCLK vdd latch_diff_1/nD latch_diff_1/D latch_diff
.ends

.subckt sky130_fd_pr__pfet_01v8_ZP3U9B VSUBS a_n221_n84# a_159_n84# w_n359_n303# a_n63_n110#
+ a_n129_n84# a_33_n110# a_n159_n110# a_63_n84# a_129_n110# a_n33_n84#
X0 a_n129_n84# a_n159_n110# a_n221_n84# w_n359_n303# sky130_fd_pr__pfet_01v8 ad=0p pd=0u as=0p ps=0u w=840000u l=150000u
X1 a_63_n84# a_33_n110# a_n33_n84# w_n359_n303# sky130_fd_pr__pfet_01v8 ad=0p pd=0u as=0p ps=0u w=840000u l=150000u
X2 a_n33_n84# a_n63_n110# a_n129_n84# w_n359_n303# sky130_fd_pr__pfet_01v8 ad=0p pd=0u as=0p ps=0u w=840000u l=150000u
X3 a_159_n84# a_129_n110# a_63_n84# w_n359_n303# sky130_fd_pr__pfet_01v8 ad=0p pd=0u as=0p ps=0u w=840000u l=150000u
.ends

.subckt sky130_fd_pr__nfet_01v8_DXA56D w_n359_n252# a_n33_n42# a_129_n68# a_n159_n68#
+ a_n221_n42# a_159_n42# a_n129_n42# a_33_n68# a_n63_n68# a_63_n42#
X0 a_63_n42# a_33_n68# a_n33_n42# w_n359_n252# sky130_fd_pr__nfet_01v8 ad=0p pd=0u as=0p ps=0u w=420000u l=150000u
X1 a_n33_n42# a_n63_n68# a_n129_n42# w_n359_n252# sky130_fd_pr__nfet_01v8 ad=0p pd=0u as=0p ps=0u w=420000u l=150000u
X2 a_159_n42# a_129_n68# a_63_n42# w_n359_n252# sky130_fd_pr__nfet_01v8 ad=0p pd=0u as=0p ps=0u w=420000u l=150000u
X3 a_n129_n42# a_n159_n68# a_n221_n42# w_n359_n252# sky130_fd_pr__nfet_01v8 ad=0p pd=0u as=0p ps=0u w=420000u l=150000u
.ends

.subckt inverter_min_x4 vdd in vss out
Xsky130_fd_pr__pfet_01v8_ZP3U9B_0 vss out out vdd in vdd in in vdd in out sky130_fd_pr__pfet_01v8_ZP3U9B
Xsky130_fd_pr__nfet_01v8_DXA56D_0 vss out in in out out vss in in vss sky130_fd_pr__nfet_01v8_DXA56D
.ends

.subckt sky130_fd_pr__pfet_01v8_BDRUME VSUBS a_351_n84# a_n513_n84# a_639_n84# a_159_n84#
+ a_n321_n84# a_447_n84# a_n753_n181# a_n609_n84# w_n935_n303# a_n129_n84# a_735_n84#
+ a_255_n84# a_n417_n84# a_63_n84# a_543_n84# a_n705_n84# a_n225_n84# a_n797_n84#
+ a_n33_n84#
X0 a_n705_n84# a_n753_n181# a_n797_n84# w_n935_n303# sky130_fd_pr__pfet_01v8 ad=0p pd=0u as=0p ps=0u w=840000u l=150000u
X1 a_n513_n84# a_n753_n181# a_n609_n84# w_n935_n303# sky130_fd_pr__pfet_01v8 ad=0p pd=0u as=0p ps=0u w=840000u l=150000u
X2 a_n417_n84# a_n753_n181# a_n513_n84# w_n935_n303# sky130_fd_pr__pfet_01v8 ad=0p pd=0u as=0p ps=0u w=840000u l=150000u
X3 a_n321_n84# a_n753_n181# a_n417_n84# w_n935_n303# sky130_fd_pr__pfet_01v8 ad=0p pd=0u as=0p ps=0u w=840000u l=150000u
X4 a_n225_n84# a_n753_n181# a_n321_n84# w_n935_n303# sky130_fd_pr__pfet_01v8 ad=0p pd=0u as=0p ps=0u w=840000u l=150000u
X5 a_n129_n84# a_n753_n181# a_n225_n84# w_n935_n303# sky130_fd_pr__pfet_01v8 ad=0p pd=0u as=0p ps=0u w=840000u l=150000u
X6 a_n609_n84# a_n753_n181# a_n705_n84# w_n935_n303# sky130_fd_pr__pfet_01v8 ad=0p pd=0u as=0p ps=0u w=840000u l=150000u
X7 a_63_n84# a_n753_n181# a_n33_n84# w_n935_n303# sky130_fd_pr__pfet_01v8 ad=0p pd=0u as=0p ps=0u w=840000u l=150000u
X8 a_n33_n84# a_n753_n181# a_n129_n84# w_n935_n303# sky130_fd_pr__pfet_01v8 ad=0p pd=0u as=0p ps=0u w=840000u l=150000u
X9 a_159_n84# a_n753_n181# a_63_n84# w_n935_n303# sky130_fd_pr__pfet_01v8 ad=0p pd=0u as=0p ps=0u w=840000u l=150000u
X10 a_255_n84# a_n753_n181# a_159_n84# w_n935_n303# sky130_fd_pr__pfet_01v8 ad=0p pd=0u as=0p ps=0u w=840000u l=150000u
X11 a_351_n84# a_n753_n181# a_255_n84# w_n935_n303# sky130_fd_pr__pfet_01v8 ad=0p pd=0u as=0p ps=0u w=840000u l=150000u
X12 a_543_n84# a_n753_n181# a_447_n84# w_n935_n303# sky130_fd_pr__pfet_01v8 ad=0p pd=0u as=0p ps=0u w=840000u l=150000u
X13 a_447_n84# a_n753_n181# a_351_n84# w_n935_n303# sky130_fd_pr__pfet_01v8 ad=0p pd=0u as=0p ps=0u w=840000u l=150000u
X14 a_639_n84# a_n753_n181# a_543_n84# w_n935_n303# sky130_fd_pr__pfet_01v8 ad=0p pd=0u as=0p ps=0u w=840000u l=150000u
X15 a_735_n84# a_n753_n181# a_639_n84# w_n935_n303# sky130_fd_pr__pfet_01v8 ad=0p pd=0u as=0p ps=0u w=840000u l=150000u
.ends

.subckt sky130_fd_pr__nfet_01v8_QQE8KM a_543_n42# a_n705_n42# a_n225_n42# a_n797_n42#
+ a_n33_n42# a_351_n42# a_n513_n42# a_639_n42# a_159_n42# w_n935_n252# a_n757_64#
+ a_n321_n42# a_447_n42# a_n609_n42# a_n129_n42# a_735_n42# a_255_n42# a_n417_n42#
+ a_63_n42#
X0 a_63_n42# a_n757_64# a_n33_n42# w_n935_n252# sky130_fd_pr__nfet_01v8 ad=0p pd=0u as=0p ps=0u w=420000u l=150000u
X1 a_n33_n42# a_n757_64# a_n129_n42# w_n935_n252# sky130_fd_pr__nfet_01v8 ad=0p pd=0u as=0p ps=0u w=420000u l=150000u
X2 a_351_n42# a_n757_64# a_255_n42# w_n935_n252# sky130_fd_pr__nfet_01v8 ad=0p pd=0u as=0p ps=0u w=420000u l=150000u
X3 a_159_n42# a_n757_64# a_63_n42# w_n935_n252# sky130_fd_pr__nfet_01v8 ad=0p pd=0u as=0p ps=0u w=420000u l=150000u
X4 a_255_n42# a_n757_64# a_159_n42# w_n935_n252# sky130_fd_pr__nfet_01v8 ad=0p pd=0u as=0p ps=0u w=420000u l=150000u
X5 a_447_n42# a_n757_64# a_351_n42# w_n935_n252# sky130_fd_pr__nfet_01v8 ad=0p pd=0u as=0p ps=0u w=420000u l=150000u
X6 a_543_n42# a_n757_64# a_447_n42# w_n935_n252# sky130_fd_pr__nfet_01v8 ad=0p pd=0u as=0p ps=0u w=420000u l=150000u
X7 a_735_n42# a_n757_64# a_639_n42# w_n935_n252# sky130_fd_pr__nfet_01v8 ad=0p pd=0u as=0p ps=0u w=420000u l=150000u
X8 a_639_n42# a_n757_64# a_543_n42# w_n935_n252# sky130_fd_pr__nfet_01v8 ad=0p pd=0u as=0p ps=0u w=420000u l=150000u
X9 a_n321_n42# a_n757_64# a_n417_n42# w_n935_n252# sky130_fd_pr__nfet_01v8 ad=0p pd=0u as=0p ps=0u w=420000u l=150000u
X10 a_n705_n42# a_n757_64# a_n797_n42# w_n935_n252# sky130_fd_pr__nfet_01v8 ad=0p pd=0u as=0p ps=0u w=420000u l=150000u
X11 a_n513_n42# a_n757_64# a_n609_n42# w_n935_n252# sky130_fd_pr__nfet_01v8 ad=0p pd=0u as=0p ps=0u w=420000u l=150000u
X12 a_n417_n42# a_n757_64# a_n513_n42# w_n935_n252# sky130_fd_pr__nfet_01v8 ad=0p pd=0u as=0p ps=0u w=420000u l=150000u
X13 a_n225_n42# a_n757_64# a_n321_n42# w_n935_n252# sky130_fd_pr__nfet_01v8 ad=0p pd=0u as=0p ps=0u w=420000u l=150000u
X14 a_n129_n42# a_n757_64# a_n225_n42# w_n935_n252# sky130_fd_pr__nfet_01v8 ad=0p pd=0u as=0p ps=0u w=420000u l=150000u
X15 a_n609_n42# a_n757_64# a_n705_n42# w_n935_n252# sky130_fd_pr__nfet_01v8 ad=0p pd=0u as=0p ps=0u w=420000u l=150000u
.ends

.subckt inverter_min_x16 in out vss vdd
Xsky130_fd_pr__pfet_01v8_BDRUME_0 vss out vdd vdd out vdd vdd in out vdd vdd out vdd
+ out vdd out vdd out out out sky130_fd_pr__pfet_01v8_BDRUME
Xsky130_fd_pr__nfet_01v8_QQE8KM_0 out vss out out out out vss vss out vss in vss vss
+ out vss out vss out vss sky130_fd_pr__nfet_01v8_QQE8KM
.ends

.subckt sky130_fd_pr__pfet_01v8_75PKJG VSUBS a_n33_n102# w_n359_n321# a_n177_n199#
+ a_63_n102# a_n129_n102# a_n221_n102# a_25_n199# a_159_n102#
X0 a_159_n102# a_25_n199# a_63_n102# w_n359_n321# sky130_fd_pr__pfet_01v8 ad=0p pd=0u as=0p ps=0u w=1.02e+06u l=150000u
X1 a_63_n102# a_25_n199# a_n33_n102# w_n359_n321# sky130_fd_pr__pfet_01v8 ad=0p pd=0u as=0p ps=0u w=1.02e+06u l=150000u
X2 a_n129_n102# a_n177_n199# a_n221_n102# w_n359_n321# sky130_fd_pr__pfet_01v8 ad=0p pd=0u as=0p ps=0u w=1.02e+06u l=150000u
X3 a_n33_n102# a_n177_n199# a_n129_n102# w_n359_n321# sky130_fd_pr__pfet_01v8 ad=0p pd=0u as=0p ps=0u w=1.02e+06u l=150000u
.ends

.subckt sky130_fd_pr__nfet_01v8_XRJ78J a_n33_n102# w_n263_n312# a_63_n102# a_n125_n102#
+ a_n81_124#
X0 a_n33_n102# a_n81_124# a_n125_n102# w_n263_n312# sky130_fd_pr__nfet_01v8 ad=0p pd=0u as=0p ps=0u w=1.02e+06u l=150000u
X1 a_63_n102# a_n81_124# a_n33_n102# w_n263_n312# sky130_fd_pr__nfet_01v8 ad=0p pd=0u as=0p ps=0u w=1.02e+06u l=150000u
.ends

.subckt nand_logic avss1p8 in1 avdd1p8 in2 out
Xsky130_fd_pr__pfet_01v8_75PKJG_0 avss1p8 avdd1p8 avdd1p8 in1 out out avdd1p8 in2
+ avdd1p8 sky130_fd_pr__pfet_01v8_75PKJG
Xsky130_fd_pr__nfet_01v8_XRJ78J_0 m1_21_n341# avss1p8 avss1p8 avss1p8 in1 sky130_fd_pr__nfet_01v8_XRJ78J
Xsky130_fd_pr__nfet_01v8_XRJ78J_1 out avss1p8 m1_21_n341# m1_21_n341# in2 sky130_fd_pr__nfet_01v8_XRJ78J
.ends

.subckt res_amp_sync_v2 vss avdd1p8 clk_amp clkn clkp rst
XDFlipFlop_0 vss avdd1p8 DFlipFlop_0/nQ clkn DFlipFlop_0/Q DFlipFlop_3/D clkp DFlipFlop
XDFlipFlop_1 vss avdd1p8 DFlipFlop_1/nQ DFlipFlop_0/Q DFlipFlop_2/D DFlipFlop_1/D
+ DFlipFlop_3/D DFlipFlop
XDFlipFlop_2 vss avdd1p8 DFlipFlop_2/nQ clkn DFlipFlop_2/Q DFlipFlop_2/D clkp DFlipFlop
XDFlipFlop_3 vss avdd1p8 DFlipFlop_3/nQ clkn DFlipFlop_3/Q DFlipFlop_3/D clkp DFlipFlop
Xinverter_min_x4_0 avdd1p8 DFlipFlop_0/Q vss DFlipFlop_3/D inverter_min_x4
Xinverter_min_x4_1 avdd1p8 nand_logic_0/out vss DFlipFlop_4/D inverter_min_x4
XDFlipFlop_4 vss avdd1p8 DFlipFlop_4/nQ clkn DFlipFlop_4/Q DFlipFlop_4/D clkp DFlipFlop
Xinverter_min_x4_2 avdd1p8 DFlipFlop_2/D vss DFlipFlop_1/D inverter_min_x4
Xinverter_min_x4_3 avdd1p8 nand_logic_1/out vss rst inverter_min_x4
Xinverter_min_x4_4 avdd1p8 DFlipFlop_4/Q vss inverter_min_x4_4/out inverter_min_x4
Xinverter_min_x16_0 inverter_min_x4_4/out clk_amp vss avdd1p8 inverter_min_x16
Xnand_logic_0 vss DFlipFlop_2/Q avdd1p8 DFlipFlop_3/Q nand_logic_0/out nand_logic
Xnand_logic_1 vss DFlipFlop_4/D avdd1p8 clkp nand_logic_1/out nand_logic
.ends

.subckt sky130_fd_pr__pfet_01v8_lvt_4L9VGG VSUBS a_291_n200# w_n487_n419# a_35_n200#
+ a_n291_n238# a_n93_n200# a_163_n200# a_n349_n200# a_n221_n200#
X0 a_291_n200# a_n291_n238# a_163_n200# w_n487_n419# sky130_fd_pr__pfet_01v8_lvt ad=0p pd=0u as=0p ps=0u w=2e+06u l=350000u
X1 a_n221_n200# a_n291_n238# a_n349_n200# w_n487_n419# sky130_fd_pr__pfet_01v8_lvt ad=0p pd=0u as=0p ps=0u w=2e+06u l=350000u
X2 a_35_n200# a_n291_n238# a_n93_n200# w_n487_n419# sky130_fd_pr__pfet_01v8_lvt ad=0p pd=0u as=0p ps=0u w=2e+06u l=350000u
X3 a_163_n200# a_n291_n238# a_35_n200# w_n487_n419# sky130_fd_pr__pfet_01v8_lvt ad=0p pd=0u as=0p ps=0u w=2e+06u l=350000u
X4 a_n93_n200# a_n291_n238# a_n221_n200# w_n487_n419# sky130_fd_pr__pfet_01v8_lvt ad=0p pd=0u as=0p ps=0u w=2e+06u l=350000u
.ends

.subckt sky130_fd_pr__nfet_01v8_L78GGD a_n73_n73# w_n211_n221# a_15_n73# a_n33_33#
X0 a_15_n73# a_n33_33# a_n73_n73# w_n211_n221# sky130_fd_pr__nfet_01v8 ad=0p pd=0u as=0p ps=0u w=420000u l=150000u
.ends

.subckt sky130_fd_pr__pfet_01v8_6RX2PQ VSUBS w_n211_n268# a_15_n48# a_n33_n145# a_n73_n48#
X0 a_15_n48# a_n33_n145# a_n73_n48# w_n211_n268# sky130_fd_pr__pfet_01v8 ad=0p pd=0u as=0p ps=0u w=840000u l=150000u
.ends

.subckt inverter_min vdd out in vss
XXM1 vss vss out in sky130_fd_pr__nfet_01v8_L78GGD
XXM2 vss vdd out in vdd sky130_fd_pr__pfet_01v8_6RX2PQ
.ends

.subckt buffer_no_inv_x05 VSUBS in avdd1p8 out
Xinverter_min_1 avdd1p8 out inverter_min_1/in VSUBS inverter_min
Xinverter_min_0 avdd1p8 inverter_min_1/in in VSUBS inverter_min
.ends

.subckt sky130_fd_pr__pfet_01v8_XA7ZMQ VSUBS a_21_142# a_63_n111# a_n87_142# a_n125_n111#
+ w_n263_n330# a_n33_n111#
X0 a_n33_n111# a_n87_142# a_n125_n111# w_n263_n330# sky130_fd_pr__pfet_01v8 ad=0p pd=0u as=0p ps=0u w=1.11e+06u l=150000u
X1 a_63_n111# a_21_142# a_n33_n111# w_n263_n330# sky130_fd_pr__pfet_01v8 ad=0p pd=0u as=0p ps=0u w=1.11e+06u l=150000u
.ends

.subckt sky130_fd_pr__nfet_01v8_HAN8QX a_15_n142# a_n33_102# a_n73_n142# w_n211_n290#
X0 a_15_n142# a_n33_102# a_n73_n142# w_n211_n290# sky130_fd_pr__nfet_01v8 ad=0p pd=0u as=0p ps=0u w=1.11e+06u l=150000u
.ends

.subckt mux_2to1_logic sel avdd1p8 w_947_n633# avss1p8 out DinA DinB
Xinverter_min_0 avdd1p8 sel_b sel avss1p8 inverter_min
Xsky130_fd_pr__pfet_01v8_XA7ZMQ_0 avss1p8 sel DinA sel DinA avdd1p8 out sky130_fd_pr__pfet_01v8_XA7ZMQ
Xsky130_fd_pr__pfet_01v8_XA7ZMQ_1 avss1p8 sel_b DinB sel_b DinB avdd1p8 out sky130_fd_pr__pfet_01v8_XA7ZMQ
Xsky130_fd_pr__nfet_01v8_HAN8QX_0 out sel_b DinA avss1p8 sky130_fd_pr__nfet_01v8_HAN8QX
Xsky130_fd_pr__nfet_01v8_HAN8QX_1 out sel DinB avss1p8 sky130_fd_pr__nfet_01v8_HAN8QX
.ends

.subckt delay_cell_buff clk clk_out avss1p8 avdd1p8 reg0 reg2 reg1 mux_2to1_logic_5/w_947_n633#
Xbuffer_no_inv_x05_8 avss1p8 mux_2to1_logic_3/DinA avdd1p8 buffer_no_inv_x05_9/in
+ buffer_no_inv_x05
Xbuffer_no_inv_x05_9 avss1p8 buffer_no_inv_x05_9/in avdd1p8 mux_2to1_logic_3/DinB
+ buffer_no_inv_x05
Xmux_2to1_logic_0 reg2 avdd1p8 mux_2to1_logic_0/w_947_n633# avss1p8 mux_2to1_logic_0/out
+ clk mux_2to1_logic_0/DinB mux_2to1_logic
Xmux_2to1_logic_1 reg2 avdd1p8 mux_2to1_logic_1/w_947_n633# avss1p8 mux_2to1_logic_1/out
+ mux_2to1_logic_1/DinA mux_2to1_logic_1/DinB mux_2to1_logic
Xmux_2to1_logic_2 reg1 avdd1p8 mux_2to1_logic_2/w_947_n633# avss1p8 mux_2to1_logic_2/out
+ mux_2to1_logic_0/out mux_2to1_logic_1/out mux_2to1_logic
Xmux_2to1_logic_3 reg2 avdd1p8 mux_2to1_logic_3/w_947_n633# avss1p8 mux_2to1_logic_3/out
+ mux_2to1_logic_3/DinA mux_2to1_logic_3/DinB mux_2to1_logic
Xmux_2to1_logic_4 reg2 avdd1p8 mux_2to1_logic_4/w_947_n633# avss1p8 mux_2to1_logic_4/out
+ mux_2to1_logic_4/DinA mux_2to1_logic_4/DinB mux_2to1_logic
Xmux_2to1_logic_5 reg1 avdd1p8 mux_2to1_logic_5/w_947_n633# avss1p8 mux_2to1_logic_5/out
+ mux_2to1_logic_3/out mux_2to1_logic_4/out mux_2to1_logic
Xmux_2to1_logic_6 reg0 avdd1p8 mux_2to1_logic_6/w_947_n633# avss1p8 nand_logic_0/in1
+ mux_2to1_logic_2/out mux_2to1_logic_5/out mux_2to1_logic
Xbuffer_no_inv_x05_10 avss1p8 mux_2to1_logic_3/DinB avdd1p8 buffer_no_inv_x05_11/in
+ buffer_no_inv_x05
Xnand_logic_0 avss1p8 nand_logic_0/in1 avdd1p8 clk clk_out nand_logic
Xbuffer_no_inv_x05_11 avss1p8 buffer_no_inv_x05_11/in avdd1p8 mux_2to1_logic_4/DinA
+ buffer_no_inv_x05
Xbuffer_no_inv_x05_12 avss1p8 mux_2to1_logic_4/DinA avdd1p8 buffer_no_inv_x05_13/in
+ buffer_no_inv_x05
Xbuffer_no_inv_x05_13 avss1p8 buffer_no_inv_x05_13/in avdd1p8 mux_2to1_logic_4/DinB
+ buffer_no_inv_x05
Xbuffer_no_inv_x05_0 avss1p8 clk avdd1p8 buffer_no_inv_x05_1/in buffer_no_inv_x05
Xbuffer_no_inv_x05_2 avss1p8 mux_2to1_logic_0/DinB avdd1p8 buffer_no_inv_x05_3/in
+ buffer_no_inv_x05
Xbuffer_no_inv_x05_1 avss1p8 buffer_no_inv_x05_1/in avdd1p8 mux_2to1_logic_0/DinB
+ buffer_no_inv_x05
Xbuffer_no_inv_x05_3 avss1p8 buffer_no_inv_x05_3/in avdd1p8 mux_2to1_logic_1/DinA
+ buffer_no_inv_x05
Xbuffer_no_inv_x05_4 avss1p8 mux_2to1_logic_1/DinA avdd1p8 buffer_no_inv_x05_5/in
+ buffer_no_inv_x05
Xbuffer_no_inv_x05_5 avss1p8 buffer_no_inv_x05_5/in avdd1p8 mux_2to1_logic_1/DinB
+ buffer_no_inv_x05
Xbuffer_no_inv_x05_6 avss1p8 mux_2to1_logic_1/DinB avdd1p8 buffer_no_inv_x05_7/in
+ buffer_no_inv_x05
Xbuffer_no_inv_x05_7 avss1p8 buffer_no_inv_x05_7/in avdd1p8 mux_2to1_logic_3/DinA
+ buffer_no_inv_x05
.ends

.subckt sky130_fd_pr__nfet_01v8_lvt_72JNYZ a_n81_n100# w_n311_n310# a_n128_122# a_111_n100#
+ a_15_n100# a_n173_n100#
X0 a_15_n100# a_n128_122# a_n81_n100# w_n311_n310# sky130_fd_pr__nfet_01v8_lvt ad=0p pd=0u as=0p ps=0u w=1e+06u l=150000u
X1 a_n81_n100# a_n128_122# a_n173_n100# w_n311_n310# sky130_fd_pr__nfet_01v8_lvt ad=0p pd=0u as=0p ps=0u w=1e+06u l=150000u
X2 a_111_n100# a_n128_122# a_15_n100# w_n311_n310# sky130_fd_pr__nfet_01v8_lvt ad=0p pd=0u as=0p ps=0u w=1e+06u l=150000u
.ends

.subckt sky130_fd_pr__pfet_01v8_2XL9AN VSUBS w_n311_n319# a_n81_n100# a_111_n100#
+ a_n129_131# a_15_n100# a_n173_n100#
X0 a_15_n100# a_n129_131# a_n81_n100# w_n311_n319# sky130_fd_pr__pfet_01v8 ad=0p pd=0u as=0p ps=0u w=1e+06u l=150000u
X1 a_111_n100# a_n129_131# a_15_n100# w_n311_n319# sky130_fd_pr__pfet_01v8 ad=0p pd=0u as=0p ps=0u w=1e+06u l=150000u
X2 a_n81_n100# a_n129_131# a_n173_n100# w_n311_n319# sky130_fd_pr__pfet_01v8 ad=0p pd=0u as=0p ps=0u w=1e+06u l=150000u
.ends

.subckt sky130_fd_pr__pfet_01v8_2XUYGK VSUBS a_n269_n100# a_n81_n100# w_n407_n319#
+ a_111_n100# a_n177_n100# a_15_n100# a_207_n100# a_n225_131#
X0 a_207_n100# a_n225_131# a_111_n100# w_n407_n319# sky130_fd_pr__pfet_01v8 ad=0p pd=0u as=0p ps=0u w=1e+06u l=150000u
X1 a_15_n100# a_n225_131# a_n81_n100# w_n407_n319# sky130_fd_pr__pfet_01v8 ad=0p pd=0u as=0p ps=0u w=1e+06u l=150000u
X2 a_111_n100# a_n225_131# a_15_n100# w_n407_n319# sky130_fd_pr__pfet_01v8 ad=0p pd=0u as=0p ps=0u w=1e+06u l=150000u
X3 a_n81_n100# a_n225_131# a_n177_n100# w_n407_n319# sky130_fd_pr__pfet_01v8 ad=0p pd=0u as=0p ps=0u w=1e+06u l=150000u
X4 a_n177_n100# a_n225_131# a_n269_n100# w_n407_n319# sky130_fd_pr__pfet_01v8 ad=0p pd=0u as=0p ps=0u w=1e+06u l=150000u
.ends

.subckt sky130_fd_pr__nfet_01v8_lvt_2AP43D a_15_n81# a_n33_41# w_n211_n229# a_n73_n81#
X0 a_15_n81# a_n33_41# a_n73_n81# w_n211_n229# sky130_fd_pr__nfet_01v8_lvt ad=0p pd=0u as=0p ps=0u w=500000u l=150000u
.ends

.subckt res_amp_lin clk vctrl avdd1p8 avss1p8 inn outn outp inp
Xsky130_fd_pr__pfet_01v8_2XL9AN_0 avss1p8 avdd1p8 a_3747_261# a_3747_261# clk avdd1p8
+ avdd1p8 sky130_fd_pr__pfet_01v8_2XL9AN
Xsky130_fd_pr__pfet_01v8_2XUYGK_0 avss1p8 a_3747_261# a_3747_261# avdd1p8 a_3747_261#
+ vp vp vp vctrl sky130_fd_pr__pfet_01v8_2XUYGK
Xsky130_fd_pr__pfet_01v8_2XUYGK_1 avss1p8 vp vp avdd1p8 vp outp outp outp inn sky130_fd_pr__pfet_01v8_2XUYGK
Xsky130_fd_pr__nfet_01v8_lvt_2AP43D_0 avss1p8 clk avss1p8 outp sky130_fd_pr__nfet_01v8_lvt_2AP43D
Xsky130_fd_pr__pfet_01v8_2XUYGK_2 avss1p8 vp vp avdd1p8 vp outp outp outp inn sky130_fd_pr__pfet_01v8_2XUYGK
Xsky130_fd_pr__nfet_01v8_lvt_2AP43D_1 avss1p8 clk avss1p8 outn sky130_fd_pr__nfet_01v8_lvt_2AP43D
Xsky130_fd_pr__pfet_01v8_2XUYGK_3 avss1p8 vp vp avdd1p8 vp outn outn outn inp sky130_fd_pr__pfet_01v8_2XUYGK
Xsky130_fd_pr__pfet_01v8_2XUYGK_4 avss1p8 vp vp avdd1p8 vp outn outn outn inp sky130_fd_pr__pfet_01v8_2XUYGK
Xsky130_fd_pr__pfet_01v8_2XUYGK_5 avss1p8 vp vp avdd1p8 vp outp outp outp inn sky130_fd_pr__pfet_01v8_2XUYGK
Xsky130_fd_pr__pfet_01v8_2XUYGK_6 avss1p8 vp vp avdd1p8 vp outp outp outp inn sky130_fd_pr__pfet_01v8_2XUYGK
Xsky130_fd_pr__pfet_01v8_2XUYGK_7 avss1p8 vp vp avdd1p8 vp outn outn outn inp sky130_fd_pr__pfet_01v8_2XUYGK
Xsky130_fd_pr__pfet_01v8_2XUYGK_8 avss1p8 vp vp avdd1p8 vp outn outn outn inp sky130_fd_pr__pfet_01v8_2XUYGK
.ends

.subckt sky130_fd_pr__nfet_01v8_lvt_595QY5 a_n269_n100# a_n81_n100# a_111_n100# a_n177_n100#
+ a_15_n100# w_n407_n310# a_207_n100# a_n225_n188#
X0 a_207_n100# a_n225_n188# a_111_n100# w_n407_n310# sky130_fd_pr__nfet_01v8_lvt ad=0p pd=0u as=0p ps=0u w=1e+06u l=150000u
X1 a_15_n100# a_n225_n188# a_n81_n100# w_n407_n310# sky130_fd_pr__nfet_01v8_lvt ad=0p pd=0u as=0p ps=0u w=1e+06u l=150000u
X2 a_n81_n100# a_n225_n188# a_n177_n100# w_n407_n310# sky130_fd_pr__nfet_01v8_lvt ad=0p pd=0u as=0p ps=0u w=1e+06u l=150000u
X3 a_111_n100# a_n225_n188# a_15_n100# w_n407_n310# sky130_fd_pr__nfet_01v8_lvt ad=0p pd=0u as=0p ps=0u w=1e+06u l=150000u
X4 a_n177_n100# a_n225_n188# a_n269_n100# w_n407_n310# sky130_fd_pr__nfet_01v8_lvt ad=0p pd=0u as=0p ps=0u w=1e+06u l=150000u
.ends

.subckt sky130_fd_pr__nfet_01v8_lvt_9B2JY7 a_n317_n100# a_n33_n100# a_n225_n100# a_n271_122#
+ a_63_n100# a_n129_n100# w_n455_n310# a_255_n100# a_159_n100#
X0 a_63_n100# a_n271_122# a_n33_n100# w_n455_n310# sky130_fd_pr__nfet_01v8_lvt ad=0p pd=0u as=0p ps=0u w=1e+06u l=150000u
X1 a_n33_n100# a_n271_122# a_n129_n100# w_n455_n310# sky130_fd_pr__nfet_01v8_lvt ad=0p pd=0u as=0p ps=0u w=1e+06u l=150000u
X2 a_159_n100# a_n271_122# a_63_n100# w_n455_n310# sky130_fd_pr__nfet_01v8_lvt ad=0p pd=0u as=0p ps=0u w=1e+06u l=150000u
X3 a_255_n100# a_n271_122# a_159_n100# w_n455_n310# sky130_fd_pr__nfet_01v8_lvt ad=0p pd=0u as=0p ps=0u w=1e+06u l=150000u
X4 a_n225_n100# a_n271_122# a_n317_n100# w_n455_n310# sky130_fd_pr__nfet_01v8_lvt ad=0p pd=0u as=0p ps=0u w=1e+06u l=150000u
X5 a_n129_n100# a_n271_122# a_n225_n100# w_n455_n310# sky130_fd_pr__nfet_01v8_lvt ad=0p pd=0u as=0p ps=0u w=1e+06u l=150000u
.ends

.subckt sky130_fd_pr__nfet_01v8_lvt_MVT43V a_n33_n100# w_n263_n310# a_63_n100# a_n79_122#
+ a_n125_n100#
X0 a_63_n100# a_n79_122# a_n33_n100# w_n263_n310# sky130_fd_pr__nfet_01v8_lvt ad=0p pd=0u as=0p ps=0u w=1e+06u l=150000u
X1 a_n33_n100# a_n79_122# a_n125_n100# w_n263_n310# sky130_fd_pr__nfet_01v8_lvt ad=0p pd=0u as=0p ps=0u w=1e+06u l=150000u
.ends

.subckt sky130_fd_pr__nfet_01v8_lvt_NMSMYT a_n33_n100# a_n321_n100# a_n225_n100# w_n551_n310#
+ a_63_n100# a_n368_122# a_n129_n100# a_351_n100# a_255_n100# a_n413_n100# a_159_n100#
X0 a_63_n100# a_n368_122# a_n33_n100# w_n551_n310# sky130_fd_pr__nfet_01v8_lvt ad=0p pd=0u as=0p ps=0u w=1e+06u l=150000u
X1 a_n33_n100# a_n368_122# a_n129_n100# w_n551_n310# sky130_fd_pr__nfet_01v8_lvt ad=0p pd=0u as=0p ps=0u w=1e+06u l=150000u
X2 a_159_n100# a_n368_122# a_63_n100# w_n551_n310# sky130_fd_pr__nfet_01v8_lvt ad=0p pd=0u as=0p ps=0u w=1e+06u l=150000u
X3 a_255_n100# a_n368_122# a_159_n100# w_n551_n310# sky130_fd_pr__nfet_01v8_lvt ad=0p pd=0u as=0p ps=0u w=1e+06u l=150000u
X4 a_351_n100# a_n368_122# a_255_n100# w_n551_n310# sky130_fd_pr__nfet_01v8_lvt ad=0p pd=0u as=0p ps=0u w=1e+06u l=150000u
X5 a_n321_n100# a_n368_122# a_n413_n100# w_n551_n310# sky130_fd_pr__nfet_01v8_lvt ad=0p pd=0u as=0p ps=0u w=1e+06u l=150000u
X6 a_n225_n100# a_n368_122# a_n321_n100# w_n551_n310# sky130_fd_pr__nfet_01v8_lvt ad=0p pd=0u as=0p ps=0u w=1e+06u l=150000u
X7 a_n129_n100# a_n368_122# a_n225_n100# w_n551_n310# sky130_fd_pr__nfet_01v8_lvt ad=0p pd=0u as=0p ps=0u w=1e+06u l=150000u
.ends

.subckt sky130_fd_pr__pfet_01v8_XAYTAL VSUBS w_n311_n319# a_n81_n100# a_n129_n197#
+ a_111_n100# a_15_n100# a_n173_n100#
X0 a_15_n100# a_n129_n197# a_n81_n100# w_n311_n319# sky130_fd_pr__pfet_01v8 ad=0p pd=0u as=0p ps=0u w=1e+06u l=150000u
X1 a_111_n100# a_n129_n197# a_15_n100# w_n311_n319# sky130_fd_pr__pfet_01v8 ad=0p pd=0u as=0p ps=0u w=1e+06u l=150000u
X2 a_n81_n100# a_n129_n197# a_n173_n100# w_n311_n319# sky130_fd_pr__pfet_01v8 ad=0p pd=0u as=0p ps=0u w=1e+06u l=150000u
.ends

.subckt sky130_fd_pr__nfet_01v8_lvt_B2JNY3 a_n33_n100# a_63_n100# a_n221_n100# a_n129_n100#
+ w_n359_n310# a_n176_122# a_159_n100#
X0 a_63_n100# a_n176_122# a_n33_n100# w_n359_n310# sky130_fd_pr__nfet_01v8_lvt ad=0p pd=0u as=0p ps=0u w=1e+06u l=150000u
X1 a_n33_n100# a_n176_122# a_n129_n100# w_n359_n310# sky130_fd_pr__nfet_01v8_lvt ad=0p pd=0u as=0p ps=0u w=1e+06u l=150000u
X2 a_159_n100# a_n176_122# a_63_n100# w_n359_n310# sky130_fd_pr__nfet_01v8_lvt ad=0p pd=0u as=0p ps=0u w=1e+06u l=150000u
X3 a_n129_n100# a_n176_122# a_n221_n100# w_n359_n310# sky130_fd_pr__nfet_01v8_lvt ad=0p pd=0u as=0p ps=0u w=1e+06u l=150000u
.ends

.subckt sky130_fd_pr__pfet_01v8_XACJHL VSUBS a_n81_n197# w_n263_n319# a_n33_n100#
+ a_63_n100# a_n125_n100#
X0 a_63_n100# a_n81_n197# a_n33_n100# w_n263_n319# sky130_fd_pr__pfet_01v8 ad=0p pd=0u as=0p ps=0u w=1e+06u l=150000u
X1 a_n33_n100# a_n81_n197# a_n125_n100# w_n263_n319# sky130_fd_pr__pfet_01v8 ad=0p pd=0u as=0p ps=0u w=1e+06u l=150000u
.ends

.subckt iref_ctrl_res_amp vctrl avdd1p8 reg0 reg1 reg2 iref avss1p8
Xsky130_fd_pr__nfet_01v8_lvt_9B2JY7_0 iref m1_n356_n363# m1_n356_n363# iref iref iref
+ avss1p8 iref m1_n356_n363# sky130_fd_pr__nfet_01v8_lvt_9B2JY7
Xsky130_fd_pr__nfet_01v8_lvt_9B2JY7_1 avss1p8 m1_n356_n363# m1_n356_n363# avdd1p8
+ avss1p8 avss1p8 avss1p8 avss1p8 m1_n356_n363# sky130_fd_pr__nfet_01v8_lvt_9B2JY7
Xsky130_fd_pr__nfet_01v8_lvt_MVT43V_0 m1_964_n363# avss1p8 vctrl iref vctrl sky130_fd_pr__nfet_01v8_lvt_MVT43V
Xsky130_fd_pr__nfet_01v8_lvt_MVT43V_1 m1_964_n363# avss1p8 avss1p8 reg0 avss1p8 sky130_fd_pr__nfet_01v8_lvt_MVT43V
Xsky130_fd_pr__nfet_01v8_lvt_NMSMYT_0 vctrl m1_1996_n363# vctrl avss1p8 m1_1996_n363#
+ iref m1_1996_n363# vctrl m1_1996_n363# vctrl vctrl sky130_fd_pr__nfet_01v8_lvt_NMSMYT
Xsky130_fd_pr__nfet_01v8_lvt_NMSMYT_1 avss1p8 m1_1996_n363# avss1p8 avss1p8 m1_1996_n363#
+ reg2 m1_1996_n363# avss1p8 m1_1996_n363# avss1p8 avss1p8 sky130_fd_pr__nfet_01v8_lvt_NMSMYT
Xsky130_fd_pr__nfet_01v8_lvt_72JNYZ_0 m1_448_n363# avss1p8 iref m1_448_n363# vctrl
+ vctrl sky130_fd_pr__nfet_01v8_lvt_72JNYZ
Xsky130_fd_pr__nfet_01v8_lvt_72JNYZ_1 m1_448_n363# avss1p8 avdd1p8 m1_448_n363# avss1p8
+ avss1p8 sky130_fd_pr__nfet_01v8_lvt_72JNYZ
Xsky130_fd_pr__pfet_01v8_XAYTAL_0 avss1p8 avdd1p8 m1_511_801# avss1p8 m1_511_801#
+ avdd1p8 avdd1p8 sky130_fd_pr__pfet_01v8_XAYTAL
Xsky130_fd_pr__nfet_01v8_lvt_B2JNY3_0 vctrl m1_1384_n363# vctrl m1_1384_n363# avss1p8
+ iref vctrl sky130_fd_pr__nfet_01v8_lvt_B2JNY3
Xsky130_fd_pr__nfet_01v8_lvt_B2JNY3_1 avss1p8 m1_1384_n363# avss1p8 m1_1384_n363#
+ avss1p8 reg1 avss1p8 sky130_fd_pr__nfet_01v8_lvt_B2JNY3
Xsky130_fd_pr__pfet_01v8_XACJHL_0 avss1p8 vctrl avdd1p8 m1_511_801# vctrl vctrl sky130_fd_pr__pfet_01v8_XACJHL
.ends

.subckt res_amp_lin_prog avdd1p8 delay_reg2 clk avss1p8 outp_cap iref_reg0 iref_reg1
+ iref_reg2 iref delay_reg0 inn outn_cap inp delay_reg1 rst
Xsky130_fd_pr__pfet_01v8_lvt_4L9VGG_0 avss1p8 outn_cap avdd1p8 outn_cap res_amp_lin_0/clk
+ outn outn outn outn_cap sky130_fd_pr__pfet_01v8_lvt_4L9VGG
Xsky130_fd_pr__pfet_01v8_lvt_4L9VGG_1 avss1p8 outp_cap avdd1p8 outp_cap res_amp_lin_0/clk
+ outp outp outp outp_cap sky130_fd_pr__pfet_01v8_lvt_4L9VGG
Xdelay_cell_buff_0 clk res_amp_lin_0/clk avss1p8 avdd1p8 delay_reg0 delay_reg2 delay_reg1
+ avss1p8 delay_cell_buff
Xinverter_min_x4_0 avdd1p8 res_amp_lin_0/clk avss1p8 inverter_min_x4_0/out inverter_min_x4
Xsky130_fd_pr__nfet_01v8_lvt_72JNYZ_0 outn_cap avss1p8 rst outn_cap avss1p8 avss1p8
+ sky130_fd_pr__nfet_01v8_lvt_72JNYZ
Xres_amp_lin_0 res_amp_lin_0/clk res_amp_lin_0/vctrl avdd1p8 avss1p8 inn outn outp
+ inp res_amp_lin
Xsky130_fd_pr__nfet_01v8_lvt_72JNYZ_1 outp_cap avss1p8 rst outp_cap avss1p8 avss1p8
+ sky130_fd_pr__nfet_01v8_lvt_72JNYZ
Xsky130_fd_pr__nfet_01v8_lvt_595QY5_0 outn outn outn outn_cap outn_cap avss1p8 outn_cap
+ inverter_min_x4_0/out sky130_fd_pr__nfet_01v8_lvt_595QY5
Xsky130_fd_pr__nfet_01v8_lvt_595QY5_1 outp outp outp outp_cap outp_cap avss1p8 outp_cap
+ inverter_min_x4_0/out sky130_fd_pr__nfet_01v8_lvt_595QY5